version 2
run General-0-20150722-10:34:29-5928
attr configname General
attr datetime 20150722-10:34:29
attr experiment General
attr inifile omnetpp.ini
attr iterationvars ""
attr iterationvars2 $repetition=0
attr measurement ""
attr network DVESystem
attr processid 5928
attr repetition 0
attr replication #0
attr resultdir results
attr runnumber 0
attr seedset 0

scalar DVESystem.source[0] 	created:last 	101
attr interpolationmode  none
attr title  "the number of jobs created, last"
scalar DVESystem.source[1] 	created:last 	101
attr interpolationmode  none
attr title  "the number of jobs created, last"
scalar DVESystem.source[2] 	created:last 	101
attr interpolationmode  none
attr title  "the number of jobs created, last"
scalar DVESystem.source[3] 	created:last 	101
attr interpolationmode  none
attr title  "the number of jobs created, last"
scalar DVESystem.source[4] 	created:last 	101
attr interpolationmode  none
attr title  "the number of jobs created, last"
scalar DVESystem.source[5] 	created:last 	101
attr interpolationmode  none
attr title  "the number of jobs created, last"
scalar DVESystem.source[6] 	created:last 	101
attr interpolationmode  none
attr title  "the number of jobs created, last"
scalar DVESystem.source[7] 	created:last 	101
attr interpolationmode  none
attr title  "the number of jobs created, last"
scalar DVESystem.source[8] 	created:last 	101
attr interpolationmode  none
attr title  "the number of jobs created, last"
scalar DVESystem.source[9] 	created:last 	101
attr interpolationmode  none
attr title  "the number of jobs created, last"
scalar DVESystem.source[10] 	created:last 	101
attr interpolationmode  none
attr title  "the number of jobs created, last"
scalar DVESystem.source[11] 	created:last 	101
attr interpolationmode  none
attr title  "the number of jobs created, last"
scalar DVESystem.source[12] 	created:last 	101
attr interpolationmode  none
attr title  "the number of jobs created, last"
scalar DVESystem.source[13] 	created:last 	101
attr interpolationmode  none
attr title  "the number of jobs created, last"
scalar DVESystem.source[14] 	created:last 	101
attr interpolationmode  none
attr title  "the number of jobs created, last"
scalar DVESystem.source[15] 	created:last 	101
attr interpolationmode  none
attr title  "the number of jobs created, last"
scalar DVESystem.source[16] 	created:last 	101
attr interpolationmode  none
attr title  "the number of jobs created, last"
scalar DVESystem.source[17] 	created:last 	101
attr interpolationmode  none
attr title  "the number of jobs created, last"
scalar DVESystem.source[18] 	created:last 	101
attr interpolationmode  none
attr title  "the number of jobs created, last"
scalar DVESystem.source[19] 	created:last 	101
attr interpolationmode  none
attr title  "the number of jobs created, last"
scalar DVESystem.source[20] 	created:last 	101
attr interpolationmode  none
attr title  "the number of jobs created, last"
scalar DVESystem.source[21] 	created:last 	101
attr interpolationmode  none
attr title  "the number of jobs created, last"
scalar DVESystem.source[22] 	created:last 	101
attr interpolationmode  none
attr title  "the number of jobs created, last"
scalar DVESystem.source[23] 	created:last 	101
attr interpolationmode  none
attr title  "the number of jobs created, last"
scalar DVESystem.source[24] 	created:last 	101
attr interpolationmode  none
attr title  "the number of jobs created, last"
scalar DVESystem.source[25] 	created:last 	101
attr interpolationmode  none
attr title  "the number of jobs created, last"
scalar DVESystem.source[26] 	created:last 	101
attr interpolationmode  none
attr title  "the number of jobs created, last"
scalar DVESystem.source[27] 	created:last 	101
attr interpolationmode  none
attr title  "the number of jobs created, last"
scalar DVESystem.source[28] 	created:last 	101
attr interpolationmode  none
attr title  "the number of jobs created, last"
scalar DVESystem.source[29] 	created:last 	101
attr interpolationmode  none
attr title  "the number of jobs created, last"
scalar DVESystem.source[30] 	created:last 	101
attr interpolationmode  none
attr title  "the number of jobs created, last"
scalar DVESystem.source[31] 	created:last 	101
attr interpolationmode  none
attr title  "the number of jobs created, last"
scalar DVESystem.source[32] 	created:last 	101
attr interpolationmode  none
attr title  "the number of jobs created, last"
scalar DVESystem.source[33] 	created:last 	101
attr interpolationmode  none
attr title  "the number of jobs created, last"
scalar DVESystem.source[34] 	created:last 	101
attr interpolationmode  none
attr title  "the number of jobs created, last"
scalar DVESystem.source[35] 	created:last 	101
attr interpolationmode  none
attr title  "the number of jobs created, last"
scalar DVESystem.source[36] 	created:last 	101
attr interpolationmode  none
attr title  "the number of jobs created, last"
scalar DVESystem.source[37] 	created:last 	101
attr interpolationmode  none
attr title  "the number of jobs created, last"
scalar DVESystem.source[38] 	created:last 	101
attr interpolationmode  none
attr title  "the number of jobs created, last"
scalar DVESystem.source[39] 	created:last 	101
attr interpolationmode  none
attr title  "the number of jobs created, last"
scalar DVESystem.source[40] 	created:last 	101
attr interpolationmode  none
attr title  "the number of jobs created, last"
scalar DVESystem.source[41] 	created:last 	101
attr interpolationmode  none
attr title  "the number of jobs created, last"
scalar DVESystem.source[42] 	created:last 	101
attr interpolationmode  none
attr title  "the number of jobs created, last"
scalar DVESystem.source[43] 	created:last 	101
attr interpolationmode  none
attr title  "the number of jobs created, last"
scalar DVESystem.source[44] 	created:last 	101
attr interpolationmode  none
attr title  "the number of jobs created, last"
scalar DVESystem.source[45] 	created:last 	101
attr interpolationmode  none
attr title  "the number of jobs created, last"
scalar DVESystem.source[46] 	created:last 	101
attr interpolationmode  none
attr title  "the number of jobs created, last"
scalar DVESystem.source[47] 	created:last 	101
attr interpolationmode  none
attr title  "the number of jobs created, last"
scalar DVESystem.source[48] 	created:last 	101
attr interpolationmode  none
attr title  "the number of jobs created, last"
scalar DVESystem.source[49] 	created:last 	101
attr interpolationmode  none
attr title  "the number of jobs created, last"
scalar DVESystem.source[50] 	created:last 	101
attr interpolationmode  none
attr title  "the number of jobs created, last"
scalar DVESystem.source[51] 	created:last 	101
attr interpolationmode  none
attr title  "the number of jobs created, last"
scalar DVESystem.source[52] 	created:last 	101
attr interpolationmode  none
attr title  "the number of jobs created, last"
scalar DVESystem.source[53] 	created:last 	101
attr interpolationmode  none
attr title  "the number of jobs created, last"
scalar DVESystem.source[54] 	created:last 	101
attr interpolationmode  none
attr title  "the number of jobs created, last"
scalar DVESystem.source[55] 	created:last 	101
attr interpolationmode  none
attr title  "the number of jobs created, last"
scalar DVESystem.source[56] 	created:last 	101
attr interpolationmode  none
attr title  "the number of jobs created, last"
scalar DVESystem.source[57] 	created:last 	101
attr interpolationmode  none
attr title  "the number of jobs created, last"
scalar DVESystem.source[58] 	created:last 	101
attr interpolationmode  none
attr title  "the number of jobs created, last"
scalar DVESystem.source[59] 	created:last 	101
attr interpolationmode  none
attr title  "the number of jobs created, last"
scalar DVESystem.source[60] 	created:last 	101
attr interpolationmode  none
attr title  "the number of jobs created, last"
scalar DVESystem.source[61] 	created:last 	101
attr interpolationmode  none
attr title  "the number of jobs created, last"
scalar DVESystem.source[62] 	created:last 	101
attr interpolationmode  none
attr title  "the number of jobs created, last"
scalar DVESystem.source[63] 	created:last 	101
attr interpolationmode  none
attr title  "the number of jobs created, last"
scalar DVESystem.source[64] 	created:last 	101
attr interpolationmode  none
attr title  "the number of jobs created, last"
scalar DVESystem.source[65] 	created:last 	101
attr interpolationmode  none
attr title  "the number of jobs created, last"
scalar DVESystem.source[66] 	created:last 	101
attr interpolationmode  none
attr title  "the number of jobs created, last"
scalar DVESystem.source[67] 	created:last 	101
attr interpolationmode  none
attr title  "the number of jobs created, last"
scalar DVESystem.source[68] 	created:last 	101
attr interpolationmode  none
attr title  "the number of jobs created, last"
scalar DVESystem.source[69] 	created:last 	101
attr interpolationmode  none
attr title  "the number of jobs created, last"
scalar DVESystem.source[70] 	created:last 	101
attr interpolationmode  none
attr title  "the number of jobs created, last"
scalar DVESystem.source[71] 	created:last 	101
attr interpolationmode  none
attr title  "the number of jobs created, last"
scalar DVESystem.source[72] 	created:last 	101
attr interpolationmode  none
attr title  "the number of jobs created, last"
scalar DVESystem.source[73] 	created:last 	101
attr interpolationmode  none
attr title  "the number of jobs created, last"
scalar DVESystem.source[74] 	created:last 	101
attr interpolationmode  none
attr title  "the number of jobs created, last"
scalar DVESystem.source[75] 	created:last 	101
attr interpolationmode  none
attr title  "the number of jobs created, last"
scalar DVESystem.source[76] 	created:last 	101
attr interpolationmode  none
attr title  "the number of jobs created, last"
scalar DVESystem.source[77] 	created:last 	101
attr interpolationmode  none
attr title  "the number of jobs created, last"
scalar DVESystem.source[78] 	created:last 	101
attr interpolationmode  none
attr title  "the number of jobs created, last"
scalar DVESystem.source[79] 	created:last 	101
attr interpolationmode  none
attr title  "the number of jobs created, last"
scalar DVESystem.source[80] 	created:last 	101
attr interpolationmode  none
attr title  "the number of jobs created, last"
scalar DVESystem.source[81] 	created:last 	101
attr interpolationmode  none
attr title  "the number of jobs created, last"
scalar DVESystem.source[82] 	created:last 	101
attr interpolationmode  none
attr title  "the number of jobs created, last"
scalar DVESystem.source[83] 	created:last 	101
attr interpolationmode  none
attr title  "the number of jobs created, last"
scalar DVESystem.source[84] 	created:last 	101
attr interpolationmode  none
attr title  "the number of jobs created, last"
scalar DVESystem.source[85] 	created:last 	101
attr interpolationmode  none
attr title  "the number of jobs created, last"
scalar DVESystem.source[86] 	created:last 	101
attr interpolationmode  none
attr title  "the number of jobs created, last"
scalar DVESystem.source[87] 	created:last 	101
attr interpolationmode  none
attr title  "the number of jobs created, last"
scalar DVESystem.source[88] 	created:last 	101
attr interpolationmode  none
attr title  "the number of jobs created, last"
scalar DVESystem.source[89] 	created:last 	101
attr interpolationmode  none
attr title  "the number of jobs created, last"
scalar DVESystem.source[90] 	created:last 	101
attr interpolationmode  none
attr title  "the number of jobs created, last"
scalar DVESystem.source[91] 	created:last 	101
attr interpolationmode  none
attr title  "the number of jobs created, last"
scalar DVESystem.source[92] 	created:last 	101
attr interpolationmode  none
attr title  "the number of jobs created, last"
scalar DVESystem.source[93] 	created:last 	101
attr interpolationmode  none
attr title  "the number of jobs created, last"
scalar DVESystem.source[94] 	created:last 	101
attr interpolationmode  none
attr title  "the number of jobs created, last"
scalar DVESystem.source[95] 	created:last 	101
attr interpolationmode  none
attr title  "the number of jobs created, last"
scalar DVESystem.source[96] 	created:last 	101
attr interpolationmode  none
attr title  "the number of jobs created, last"
scalar DVESystem.source[97] 	created:last 	101
attr interpolationmode  none
attr title  "the number of jobs created, last"
scalar DVESystem.source[98] 	created:last 	101
attr interpolationmode  none
attr title  "the number of jobs created, last"
scalar DVESystem.source[99] 	created:last 	101
attr interpolationmode  none
attr title  "the number of jobs created, last"
scalar DVESystem.source[100] 	created:last 	101
attr interpolationmode  none
attr title  "the number of jobs created, last"
scalar DVESystem.source[101] 	created:last 	101
attr interpolationmode  none
attr title  "the number of jobs created, last"
scalar DVESystem.source[102] 	created:last 	101
attr interpolationmode  none
attr title  "the number of jobs created, last"
scalar DVESystem.source[103] 	created:last 	101
attr interpolationmode  none
attr title  "the number of jobs created, last"
scalar DVESystem.source[104] 	created:last 	101
attr interpolationmode  none
attr title  "the number of jobs created, last"
scalar DVESystem.source[105] 	created:last 	101
attr interpolationmode  none
attr title  "the number of jobs created, last"
scalar DVESystem.source[106] 	created:last 	101
attr interpolationmode  none
attr title  "the number of jobs created, last"
scalar DVESystem.source[107] 	created:last 	101
attr interpolationmode  none
attr title  "the number of jobs created, last"
scalar DVESystem.source[108] 	created:last 	101
attr interpolationmode  none
attr title  "the number of jobs created, last"
scalar DVESystem.source[109] 	created:last 	101
attr interpolationmode  none
attr title  "the number of jobs created, last"
scalar DVESystem.source[110] 	created:last 	101
attr interpolationmode  none
attr title  "the number of jobs created, last"
scalar DVESystem.source[111] 	created:last 	101
attr interpolationmode  none
attr title  "the number of jobs created, last"
scalar DVESystem.source[112] 	created:last 	101
attr interpolationmode  none
attr title  "the number of jobs created, last"
scalar DVESystem.source[113] 	created:last 	101
attr interpolationmode  none
attr title  "the number of jobs created, last"
scalar DVESystem.source[114] 	created:last 	101
attr interpolationmode  none
attr title  "the number of jobs created, last"
scalar DVESystem.source[115] 	created:last 	101
attr interpolationmode  none
attr title  "the number of jobs created, last"
scalar DVESystem.source[116] 	created:last 	101
attr interpolationmode  none
attr title  "the number of jobs created, last"
scalar DVESystem.source[117] 	created:last 	101
attr interpolationmode  none
attr title  "the number of jobs created, last"
scalar DVESystem.source[118] 	created:last 	101
attr interpolationmode  none
attr title  "the number of jobs created, last"
scalar DVESystem.source[119] 	created:last 	101
attr interpolationmode  none
attr title  "the number of jobs created, last"
scalar DVESystem.source[120] 	created:last 	101
attr interpolationmode  none
attr title  "the number of jobs created, last"
scalar DVESystem.source[121] 	created:last 	101
attr interpolationmode  none
attr title  "the number of jobs created, last"
scalar DVESystem.source[122] 	created:last 	101
attr interpolationmode  none
attr title  "the number of jobs created, last"
scalar DVESystem.source[123] 	created:last 	101
attr interpolationmode  none
attr title  "the number of jobs created, last"
scalar DVESystem.source[124] 	created:last 	101
attr interpolationmode  none
attr title  "the number of jobs created, last"
scalar DVESystem.source[125] 	created:last 	101
attr interpolationmode  none
attr title  "the number of jobs created, last"
scalar DVESystem.source[126] 	created:last 	101
attr interpolationmode  none
attr title  "the number of jobs created, last"
scalar DVESystem.source[127] 	created:last 	101
attr interpolationmode  none
attr title  "the number of jobs created, last"
scalar DVESystem.source[128] 	created:last 	101
attr interpolationmode  none
attr title  "the number of jobs created, last"
scalar DVESystem.source[129] 	created:last 	101
attr interpolationmode  none
attr title  "the number of jobs created, last"
scalar DVESystem.source[130] 	created:last 	101
attr interpolationmode  none
attr title  "the number of jobs created, last"
scalar DVESystem.source[131] 	created:last 	101
attr interpolationmode  none
attr title  "the number of jobs created, last"
scalar DVESystem.source[132] 	created:last 	101
attr interpolationmode  none
attr title  "the number of jobs created, last"
scalar DVESystem.source[133] 	created:last 	101
attr interpolationmode  none
attr title  "the number of jobs created, last"
scalar DVESystem.source[134] 	created:last 	101
attr interpolationmode  none
attr title  "the number of jobs created, last"
scalar DVESystem.source[135] 	created:last 	101
attr interpolationmode  none
attr title  "the number of jobs created, last"
scalar DVESystem.source[136] 	created:last 	101
attr interpolationmode  none
attr title  "the number of jobs created, last"
scalar DVESystem.source[137] 	created:last 	101
attr interpolationmode  none
attr title  "the number of jobs created, last"
scalar DVESystem.source[138] 	created:last 	101
attr interpolationmode  none
attr title  "the number of jobs created, last"
scalar DVESystem.source[139] 	created:last 	101
attr interpolationmode  none
attr title  "the number of jobs created, last"
scalar DVESystem.source[140] 	created:last 	101
attr interpolationmode  none
attr title  "the number of jobs created, last"
scalar DVESystem.source[141] 	created:last 	101
attr interpolationmode  none
attr title  "the number of jobs created, last"
scalar DVESystem.source[142] 	created:last 	101
attr interpolationmode  none
attr title  "the number of jobs created, last"
scalar DVESystem.source[143] 	created:last 	101
attr interpolationmode  none
attr title  "the number of jobs created, last"
scalar DVESystem.source[144] 	created:last 	101
attr interpolationmode  none
attr title  "the number of jobs created, last"
scalar DVESystem.source[145] 	created:last 	101
attr interpolationmode  none
attr title  "the number of jobs created, last"
scalar DVESystem.source[146] 	created:last 	101
attr interpolationmode  none
attr title  "the number of jobs created, last"
scalar DVESystem.source[147] 	created:last 	101
attr interpolationmode  none
attr title  "the number of jobs created, last"
scalar DVESystem.source[148] 	created:last 	101
attr interpolationmode  none
attr title  "the number of jobs created, last"
scalar DVESystem.source[149] 	created:last 	101
attr interpolationmode  none
attr title  "the number of jobs created, last"
scalar DVESystem.source[150] 	created:last 	101
attr interpolationmode  none
attr title  "the number of jobs created, last"
scalar DVESystem.source[151] 	created:last 	101
attr interpolationmode  none
attr title  "the number of jobs created, last"
scalar DVESystem.source[152] 	created:last 	101
attr interpolationmode  none
attr title  "the number of jobs created, last"
scalar DVESystem.source[153] 	created:last 	101
attr interpolationmode  none
attr title  "the number of jobs created, last"
scalar DVESystem.source[154] 	created:last 	101
attr interpolationmode  none
attr title  "the number of jobs created, last"
scalar DVESystem.source[155] 	created:last 	101
attr interpolationmode  none
attr title  "the number of jobs created, last"
scalar DVESystem.source[156] 	created:last 	101
attr interpolationmode  none
attr title  "the number of jobs created, last"
scalar DVESystem.source[157] 	created:last 	101
attr interpolationmode  none
attr title  "the number of jobs created, last"
scalar DVESystem.source[158] 	created:last 	101
attr interpolationmode  none
attr title  "the number of jobs created, last"
scalar DVESystem.source[159] 	created:last 	101
attr interpolationmode  none
attr title  "the number of jobs created, last"
scalar DVESystem.source[160] 	created:last 	101
attr interpolationmode  none
attr title  "the number of jobs created, last"
scalar DVESystem.source[161] 	created:last 	101
attr interpolationmode  none
attr title  "the number of jobs created, last"
scalar DVESystem.source[162] 	created:last 	101
attr interpolationmode  none
attr title  "the number of jobs created, last"
scalar DVESystem.source[163] 	created:last 	101
attr interpolationmode  none
attr title  "the number of jobs created, last"
scalar DVESystem.source[164] 	created:last 	101
attr interpolationmode  none
attr title  "the number of jobs created, last"
scalar DVESystem.source[165] 	created:last 	101
attr interpolationmode  none
attr title  "the number of jobs created, last"
scalar DVESystem.source[166] 	created:last 	101
attr interpolationmode  none
attr title  "the number of jobs created, last"
scalar DVESystem.source[167] 	created:last 	101
attr interpolationmode  none
attr title  "the number of jobs created, last"
scalar DVESystem.source[168] 	created:last 	101
attr interpolationmode  none
attr title  "the number of jobs created, last"
scalar DVESystem.source[169] 	created:last 	101
attr interpolationmode  none
attr title  "the number of jobs created, last"
scalar DVESystem.source[170] 	created:last 	101
attr interpolationmode  none
attr title  "the number of jobs created, last"
scalar DVESystem.source[171] 	created:last 	101
attr interpolationmode  none
attr title  "the number of jobs created, last"
scalar DVESystem.source[172] 	created:last 	101
attr interpolationmode  none
attr title  "the number of jobs created, last"
scalar DVESystem.source[173] 	created:last 	101
attr interpolationmode  none
attr title  "the number of jobs created, last"
scalar DVESystem.source[174] 	created:last 	101
attr interpolationmode  none
attr title  "the number of jobs created, last"
scalar DVESystem.source[175] 	created:last 	101
attr interpolationmode  none
attr title  "the number of jobs created, last"
scalar DVESystem.source[176] 	created:last 	101
attr interpolationmode  none
attr title  "the number of jobs created, last"
scalar DVESystem.source[177] 	created:last 	101
attr interpolationmode  none
attr title  "the number of jobs created, last"
scalar DVESystem.source[178] 	created:last 	101
attr interpolationmode  none
attr title  "the number of jobs created, last"
scalar DVESystem.source[179] 	created:last 	101
attr interpolationmode  none
attr title  "the number of jobs created, last"
scalar DVESystem.source[180] 	created:last 	101
attr interpolationmode  none
attr title  "the number of jobs created, last"
scalar DVESystem.source[181] 	created:last 	101
attr interpolationmode  none
attr title  "the number of jobs created, last"
scalar DVESystem.source[182] 	created:last 	101
attr interpolationmode  none
attr title  "the number of jobs created, last"
scalar DVESystem.source[183] 	created:last 	101
attr interpolationmode  none
attr title  "the number of jobs created, last"
scalar DVESystem.source[184] 	created:last 	101
attr interpolationmode  none
attr title  "the number of jobs created, last"
scalar DVESystem.source[185] 	created:last 	101
attr interpolationmode  none
attr title  "the number of jobs created, last"
scalar DVESystem.source[186] 	created:last 	101
attr interpolationmode  none
attr title  "the number of jobs created, last"
scalar DVESystem.source[187] 	created:last 	101
attr interpolationmode  none
attr title  "the number of jobs created, last"
scalar DVESystem.source[188] 	created:last 	101
attr interpolationmode  none
attr title  "the number of jobs created, last"
scalar DVESystem.source[189] 	created:last 	101
attr interpolationmode  none
attr title  "the number of jobs created, last"
scalar DVESystem.source[190] 	created:last 	101
attr interpolationmode  none
attr title  "the number of jobs created, last"
scalar DVESystem.source[191] 	created:last 	101
attr interpolationmode  none
attr title  "the number of jobs created, last"
scalar DVESystem.source[192] 	created:last 	101
attr interpolationmode  none
attr title  "the number of jobs created, last"
scalar DVESystem.source[193] 	created:last 	101
attr interpolationmode  none
attr title  "the number of jobs created, last"
scalar DVESystem.source[194] 	created:last 	101
attr interpolationmode  none
attr title  "the number of jobs created, last"
scalar DVESystem.source[195] 	created:last 	101
attr interpolationmode  none
attr title  "the number of jobs created, last"
scalar DVESystem.source[196] 	created:last 	101
attr interpolationmode  none
attr title  "the number of jobs created, last"
scalar DVESystem.source[197] 	created:last 	101
attr interpolationmode  none
attr title  "the number of jobs created, last"
scalar DVESystem.source[198] 	created:last 	101
attr interpolationmode  none
attr title  "the number of jobs created, last"
scalar DVESystem.source[199] 	created:last 	101
attr interpolationmode  none
attr title  "the number of jobs created, last"
scalar DVESystem.source[200] 	created:last 	101
attr interpolationmode  none
attr title  "the number of jobs created, last"
scalar DVESystem.source[201] 	created:last 	101
attr interpolationmode  none
attr title  "the number of jobs created, last"
scalar DVESystem.source[202] 	created:last 	101
attr interpolationmode  none
attr title  "the number of jobs created, last"
scalar DVESystem.source[203] 	created:last 	101
attr interpolationmode  none
attr title  "the number of jobs created, last"
scalar DVESystem.source[204] 	created:last 	101
attr interpolationmode  none
attr title  "the number of jobs created, last"
scalar DVESystem.source[205] 	created:last 	101
attr interpolationmode  none
attr title  "the number of jobs created, last"
scalar DVESystem.source[206] 	created:last 	101
attr interpolationmode  none
attr title  "the number of jobs created, last"
scalar DVESystem.source[207] 	created:last 	101
attr interpolationmode  none
attr title  "the number of jobs created, last"
scalar DVESystem.source[208] 	created:last 	101
attr interpolationmode  none
attr title  "the number of jobs created, last"
scalar DVESystem.source[209] 	created:last 	101
attr interpolationmode  none
attr title  "the number of jobs created, last"
scalar DVESystem.source[210] 	created:last 	101
attr interpolationmode  none
attr title  "the number of jobs created, last"
scalar DVESystem.source[211] 	created:last 	101
attr interpolationmode  none
attr title  "the number of jobs created, last"
scalar DVESystem.source[212] 	created:last 	101
attr interpolationmode  none
attr title  "the number of jobs created, last"
scalar DVESystem.source[213] 	created:last 	101
attr interpolationmode  none
attr title  "the number of jobs created, last"
scalar DVESystem.source[214] 	created:last 	101
attr interpolationmode  none
attr title  "the number of jobs created, last"
scalar DVESystem.source[215] 	created:last 	101
attr interpolationmode  none
attr title  "the number of jobs created, last"
scalar DVESystem.source[216] 	created:last 	101
attr interpolationmode  none
attr title  "the number of jobs created, last"
scalar DVESystem.source[217] 	created:last 	101
attr interpolationmode  none
attr title  "the number of jobs created, last"
scalar DVESystem.source[218] 	created:last 	101
attr interpolationmode  none
attr title  "the number of jobs created, last"
scalar DVESystem.source[219] 	created:last 	101
attr interpolationmode  none
attr title  "the number of jobs created, last"
scalar DVESystem.source[220] 	created:last 	101
attr interpolationmode  none
attr title  "the number of jobs created, last"
scalar DVESystem.source[221] 	created:last 	101
attr interpolationmode  none
attr title  "the number of jobs created, last"
scalar DVESystem.source[222] 	created:last 	101
attr interpolationmode  none
attr title  "the number of jobs created, last"
scalar DVESystem.source[223] 	created:last 	101
attr interpolationmode  none
attr title  "the number of jobs created, last"
scalar DVESystem.source[224] 	created:last 	101
attr interpolationmode  none
attr title  "the number of jobs created, last"
scalar DVESystem.source[225] 	created:last 	101
attr interpolationmode  none
attr title  "the number of jobs created, last"
scalar DVESystem.source[226] 	created:last 	101
attr interpolationmode  none
attr title  "the number of jobs created, last"
scalar DVESystem.source[227] 	created:last 	101
attr interpolationmode  none
attr title  "the number of jobs created, last"
scalar DVESystem.source[228] 	created:last 	101
attr interpolationmode  none
attr title  "the number of jobs created, last"
scalar DVESystem.source[229] 	created:last 	101
attr interpolationmode  none
attr title  "the number of jobs created, last"
scalar DVESystem.source[230] 	created:last 	101
attr interpolationmode  none
attr title  "the number of jobs created, last"
scalar DVESystem.source[231] 	created:last 	101
attr interpolationmode  none
attr title  "the number of jobs created, last"
scalar DVESystem.source[232] 	created:last 	101
attr interpolationmode  none
attr title  "the number of jobs created, last"
scalar DVESystem.source[233] 	created:last 	101
attr interpolationmode  none
attr title  "the number of jobs created, last"
scalar DVESystem.source[234] 	created:last 	101
attr interpolationmode  none
attr title  "the number of jobs created, last"
scalar DVESystem.source[235] 	created:last 	101
attr interpolationmode  none
attr title  "the number of jobs created, last"
scalar DVESystem.source[236] 	created:last 	101
attr interpolationmode  none
attr title  "the number of jobs created, last"
scalar DVESystem.source[237] 	created:last 	101
attr interpolationmode  none
attr title  "the number of jobs created, last"
scalar DVESystem.source[238] 	created:last 	101
attr interpolationmode  none
attr title  "the number of jobs created, last"
scalar DVESystem.source[239] 	created:last 	101
attr interpolationmode  none
attr title  "the number of jobs created, last"
scalar DVESystem.source[240] 	created:last 	101
attr interpolationmode  none
attr title  "the number of jobs created, last"
scalar DVESystem.source[241] 	created:last 	101
attr interpolationmode  none
attr title  "the number of jobs created, last"
scalar DVESystem.source[242] 	created:last 	101
attr interpolationmode  none
attr title  "the number of jobs created, last"
scalar DVESystem.source[243] 	created:last 	101
attr interpolationmode  none
attr title  "the number of jobs created, last"
scalar DVESystem.source[244] 	created:last 	101
attr interpolationmode  none
attr title  "the number of jobs created, last"
scalar DVESystem.source[245] 	created:last 	101
attr interpolationmode  none
attr title  "the number of jobs created, last"
scalar DVESystem.source[246] 	created:last 	101
attr interpolationmode  none
attr title  "the number of jobs created, last"
scalar DVESystem.source[247] 	created:last 	101
attr interpolationmode  none
attr title  "the number of jobs created, last"
scalar DVESystem.source[248] 	created:last 	101
attr interpolationmode  none
attr title  "the number of jobs created, last"
scalar DVESystem.source[249] 	created:last 	101
attr interpolationmode  none
attr title  "the number of jobs created, last"
scalar DVESystem.source[250] 	created:last 	101
attr interpolationmode  none
attr title  "the number of jobs created, last"
scalar DVESystem.source[251] 	created:last 	101
attr interpolationmode  none
attr title  "the number of jobs created, last"
scalar DVESystem.source[252] 	created:last 	101
attr interpolationmode  none
attr title  "the number of jobs created, last"
scalar DVESystem.source[253] 	created:last 	101
attr interpolationmode  none
attr title  "the number of jobs created, last"
scalar DVESystem.source[254] 	created:last 	101
attr interpolationmode  none
attr title  "the number of jobs created, last"
scalar DVESystem.source[255] 	created:last 	101
attr interpolationmode  none
attr title  "the number of jobs created, last"
scalar DVESystem.source[256] 	created:last 	101
attr interpolationmode  none
attr title  "the number of jobs created, last"
scalar DVESystem.source[257] 	created:last 	101
attr interpolationmode  none
attr title  "the number of jobs created, last"
scalar DVESystem.source[258] 	created:last 	101
attr interpolationmode  none
attr title  "the number of jobs created, last"
scalar DVESystem.source[259] 	created:last 	101
attr interpolationmode  none
attr title  "the number of jobs created, last"
scalar DVESystem.source[260] 	created:last 	101
attr interpolationmode  none
attr title  "the number of jobs created, last"
scalar DVESystem.source[261] 	created:last 	101
attr interpolationmode  none
attr title  "the number of jobs created, last"
scalar DVESystem.source[262] 	created:last 	101
attr interpolationmode  none
attr title  "the number of jobs created, last"
scalar DVESystem.source[263] 	created:last 	101
attr interpolationmode  none
attr title  "the number of jobs created, last"
scalar DVESystem.source[264] 	created:last 	101
attr interpolationmode  none
attr title  "the number of jobs created, last"
scalar DVESystem.source[265] 	created:last 	101
attr interpolationmode  none
attr title  "the number of jobs created, last"
scalar DVESystem.source[266] 	created:last 	101
attr interpolationmode  none
attr title  "the number of jobs created, last"
scalar DVESystem.source[267] 	created:last 	101
attr interpolationmode  none
attr title  "the number of jobs created, last"
scalar DVESystem.source[268] 	created:last 	101
attr interpolationmode  none
attr title  "the number of jobs created, last"
scalar DVESystem.source[269] 	created:last 	101
attr interpolationmode  none
attr title  "the number of jobs created, last"
scalar DVESystem.source[270] 	created:last 	101
attr interpolationmode  none
attr title  "the number of jobs created, last"
scalar DVESystem.source[271] 	created:last 	101
attr interpolationmode  none
attr title  "the number of jobs created, last"
scalar DVESystem.source[272] 	created:last 	101
attr interpolationmode  none
attr title  "the number of jobs created, last"
scalar DVESystem.source[273] 	created:last 	101
attr interpolationmode  none
attr title  "the number of jobs created, last"
scalar DVESystem.source[274] 	created:last 	101
attr interpolationmode  none
attr title  "the number of jobs created, last"
scalar DVESystem.source[275] 	created:last 	101
attr interpolationmode  none
attr title  "the number of jobs created, last"
scalar DVESystem.source[276] 	created:last 	101
attr interpolationmode  none
attr title  "the number of jobs created, last"
scalar DVESystem.source[277] 	created:last 	101
attr interpolationmode  none
attr title  "the number of jobs created, last"
scalar DVESystem.source[278] 	created:last 	101
attr interpolationmode  none
attr title  "the number of jobs created, last"
scalar DVESystem.source[279] 	created:last 	101
attr interpolationmode  none
attr title  "the number of jobs created, last"
scalar DVESystem.source[280] 	created:last 	101
attr interpolationmode  none
attr title  "the number of jobs created, last"
scalar DVESystem.source[281] 	created:last 	101
attr interpolationmode  none
attr title  "the number of jobs created, last"
scalar DVESystem.source[282] 	created:last 	101
attr interpolationmode  none
attr title  "the number of jobs created, last"
scalar DVESystem.source[283] 	created:last 	101
attr interpolationmode  none
attr title  "the number of jobs created, last"
scalar DVESystem.source[284] 	created:last 	101
attr interpolationmode  none
attr title  "the number of jobs created, last"
scalar DVESystem.source[285] 	created:last 	101
attr interpolationmode  none
attr title  "the number of jobs created, last"
scalar DVESystem.source[286] 	created:last 	101
attr interpolationmode  none
attr title  "the number of jobs created, last"
scalar DVESystem.source[287] 	created:last 	101
attr interpolationmode  none
attr title  "the number of jobs created, last"
scalar DVESystem.source[288] 	created:last 	101
attr interpolationmode  none
attr title  "the number of jobs created, last"
scalar DVESystem.source[289] 	created:last 	101
attr interpolationmode  none
attr title  "the number of jobs created, last"
scalar DVESystem.source[290] 	created:last 	101
attr interpolationmode  none
attr title  "the number of jobs created, last"
scalar DVESystem.source[291] 	created:last 	101
attr interpolationmode  none
attr title  "the number of jobs created, last"
scalar DVESystem.source[292] 	created:last 	101
attr interpolationmode  none
attr title  "the number of jobs created, last"
scalar DVESystem.source[293] 	created:last 	101
attr interpolationmode  none
attr title  "the number of jobs created, last"
scalar DVESystem.source[294] 	created:last 	101
attr interpolationmode  none
attr title  "the number of jobs created, last"
scalar DVESystem.source[295] 	created:last 	101
attr interpolationmode  none
attr title  "the number of jobs created, last"
scalar DVESystem.source[296] 	created:last 	101
attr interpolationmode  none
attr title  "the number of jobs created, last"
scalar DVESystem.source[297] 	created:last 	101
attr interpolationmode  none
attr title  "the number of jobs created, last"
scalar DVESystem.source[298] 	created:last 	101
attr interpolationmode  none
attr title  "the number of jobs created, last"
scalar DVESystem.source[299] 	created:last 	101
attr interpolationmode  none
attr title  "the number of jobs created, last"
scalar DVESystem.source[300] 	created:last 	101
attr interpolationmode  none
attr title  "the number of jobs created, last"
scalar DVESystem.source[301] 	created:last 	101
attr interpolationmode  none
attr title  "the number of jobs created, last"
scalar DVESystem.source[302] 	created:last 	101
attr interpolationmode  none
attr title  "the number of jobs created, last"
scalar DVESystem.source[303] 	created:last 	101
attr interpolationmode  none
attr title  "the number of jobs created, last"
scalar DVESystem.source[304] 	created:last 	101
attr interpolationmode  none
attr title  "the number of jobs created, last"
scalar DVESystem.source[305] 	created:last 	101
attr interpolationmode  none
attr title  "the number of jobs created, last"
scalar DVESystem.source[306] 	created:last 	101
attr interpolationmode  none
attr title  "the number of jobs created, last"
scalar DVESystem.source[307] 	created:last 	101
attr interpolationmode  none
attr title  "the number of jobs created, last"
scalar DVESystem.source[308] 	created:last 	101
attr interpolationmode  none
attr title  "the number of jobs created, last"
scalar DVESystem.source[309] 	created:last 	101
attr interpolationmode  none
attr title  "the number of jobs created, last"
scalar DVESystem.source[310] 	created:last 	101
attr interpolationmode  none
attr title  "the number of jobs created, last"
scalar DVESystem.source[311] 	created:last 	101
attr interpolationmode  none
attr title  "the number of jobs created, last"
scalar DVESystem.source[312] 	created:last 	101
attr interpolationmode  none
attr title  "the number of jobs created, last"
scalar DVESystem.source[313] 	created:last 	101
attr interpolationmode  none
attr title  "the number of jobs created, last"
scalar DVESystem.source[314] 	created:last 	101
attr interpolationmode  none
attr title  "the number of jobs created, last"
scalar DVESystem.source[315] 	created:last 	101
attr interpolationmode  none
attr title  "the number of jobs created, last"
scalar DVESystem.source[316] 	created:last 	101
attr interpolationmode  none
attr title  "the number of jobs created, last"
scalar DVESystem.source[317] 	created:last 	101
attr interpolationmode  none
attr title  "the number of jobs created, last"
scalar DVESystem.source[318] 	created:last 	101
attr interpolationmode  none
attr title  "the number of jobs created, last"
scalar DVESystem.source[319] 	created:last 	101
attr interpolationmode  none
attr title  "the number of jobs created, last"
scalar DVESystem.source[320] 	created:last 	101
attr interpolationmode  none
attr title  "the number of jobs created, last"
scalar DVESystem.source[321] 	created:last 	101
attr interpolationmode  none
attr title  "the number of jobs created, last"
scalar DVESystem.source[322] 	created:last 	101
attr interpolationmode  none
attr title  "the number of jobs created, last"
scalar DVESystem.source[323] 	created:last 	101
attr interpolationmode  none
attr title  "the number of jobs created, last"
scalar DVESystem.source[324] 	created:last 	101
attr interpolationmode  none
attr title  "the number of jobs created, last"
scalar DVESystem.source[325] 	created:last 	101
attr interpolationmode  none
attr title  "the number of jobs created, last"
scalar DVESystem.source[326] 	created:last 	101
attr interpolationmode  none
attr title  "the number of jobs created, last"
scalar DVESystem.source[327] 	created:last 	101
attr interpolationmode  none
attr title  "the number of jobs created, last"
scalar DVESystem.source[328] 	created:last 	101
attr interpolationmode  none
attr title  "the number of jobs created, last"
scalar DVESystem.source[329] 	created:last 	101
attr interpolationmode  none
attr title  "the number of jobs created, last"
scalar DVESystem.source[330] 	created:last 	101
attr interpolationmode  none
attr title  "the number of jobs created, last"
scalar DVESystem.source[331] 	created:last 	101
attr interpolationmode  none
attr title  "the number of jobs created, last"
scalar DVESystem.source[332] 	created:last 	101
attr interpolationmode  none
attr title  "the number of jobs created, last"
scalar DVESystem.source[333] 	created:last 	101
attr interpolationmode  none
attr title  "the number of jobs created, last"
scalar DVESystem.source[334] 	created:last 	101
attr interpolationmode  none
attr title  "the number of jobs created, last"
scalar DVESystem.source[335] 	created:last 	101
attr interpolationmode  none
attr title  "the number of jobs created, last"
scalar DVESystem.source[336] 	created:last 	101
attr interpolationmode  none
attr title  "the number of jobs created, last"
scalar DVESystem.source[337] 	created:last 	101
attr interpolationmode  none
attr title  "the number of jobs created, last"
scalar DVESystem.source[338] 	created:last 	101
attr interpolationmode  none
attr title  "the number of jobs created, last"
scalar DVESystem.source[339] 	created:last 	101
attr interpolationmode  none
attr title  "the number of jobs created, last"
scalar DVESystem.source[340] 	created:last 	101
attr interpolationmode  none
attr title  "the number of jobs created, last"
scalar DVESystem.source[341] 	created:last 	101
attr interpolationmode  none
attr title  "the number of jobs created, last"
scalar DVESystem.source[342] 	created:last 	101
attr interpolationmode  none
attr title  "the number of jobs created, last"
scalar DVESystem.source[343] 	created:last 	101
attr interpolationmode  none
attr title  "the number of jobs created, last"
scalar DVESystem.source[344] 	created:last 	101
attr interpolationmode  none
attr title  "the number of jobs created, last"
scalar DVESystem.source[345] 	created:last 	101
attr interpolationmode  none
attr title  "the number of jobs created, last"
scalar DVESystem.source[346] 	created:last 	101
attr interpolationmode  none
attr title  "the number of jobs created, last"
scalar DVESystem.source[347] 	created:last 	101
attr interpolationmode  none
attr title  "the number of jobs created, last"
scalar DVESystem.source[348] 	created:last 	101
attr interpolationmode  none
attr title  "the number of jobs created, last"
scalar DVESystem.source[349] 	created:last 	101
attr interpolationmode  none
attr title  "the number of jobs created, last"
scalar DVESystem.source[350] 	created:last 	101
attr interpolationmode  none
attr title  "the number of jobs created, last"
scalar DVESystem.source[351] 	created:last 	101
attr interpolationmode  none
attr title  "the number of jobs created, last"
scalar DVESystem.source[352] 	created:last 	101
attr interpolationmode  none
attr title  "the number of jobs created, last"
scalar DVESystem.source[353] 	created:last 	101
attr interpolationmode  none
attr title  "the number of jobs created, last"
scalar DVESystem.source[354] 	created:last 	101
attr interpolationmode  none
attr title  "the number of jobs created, last"
scalar DVESystem.source[355] 	created:last 	101
attr interpolationmode  none
attr title  "the number of jobs created, last"
scalar DVESystem.source[356] 	created:last 	101
attr interpolationmode  none
attr title  "the number of jobs created, last"
scalar DVESystem.source[357] 	created:last 	101
attr interpolationmode  none
attr title  "the number of jobs created, last"
scalar DVESystem.source[358] 	created:last 	101
attr interpolationmode  none
attr title  "the number of jobs created, last"
scalar DVESystem.source[359] 	created:last 	101
attr interpolationmode  none
attr title  "the number of jobs created, last"
statistic DVESystem.client[0] 	clientPresenceFactor:stats
field count 862
field mean 3.9559164733179
field stddev 1.9919480266188
field sum 3410
field sqrsum 16906
field min 0
field max 10
attr interpolationmode  none
attr source  presenceFactor
attr title  "Presence Factor, stats"
statistic DVESystem.client[0] 	clientMoves:stats
field count 89
field mean 45
field stddev 25.836021365528
field sum 4005
field sqrsum 238965
field min 1
field max 89
attr interpolationmode  none
attr source  move
attr title  "Moves, stats"
statistic DVESystem.client[0] 	clientNoMoves:stats
field count 11
field mean 6
field stddev 3.3166247903554
field sum 66
field sqrsum 506
field min 1
field max 11
attr interpolationmode  none
attr source  noMove
attr title  "No moves, stats"
statistic DVESystem.client[0] 	clientMovesLost:stats
field count 0
field mean 0
field stddev -1.#IND
field sum 0
field sqrsum 0
field min 0
field max 0
attr interpolationmode  none
attr source  moveLost
attr title  "Moves lost, stats"
statistic DVESystem.client[0] 	dveResponse:stats
field count 89
field mean 0.55549356151397
field stddev 0.20920226515969
field sum 49.438926974743
field sqrsum 31.314377344448
field min 0.207699836225
field max 1.104960448607
attr interpolationmode  none
attr source  sysResponse
attr title  "DVE response time, stats"
statistic DVESystem.client[1] 	clientPresenceFactor:stats
field count 843
field mean 4.2348754448399
field stddev 2.1359647010619
field sum 3570
field sqrsum 18960
field min 0
field max 10
attr interpolationmode  none
attr source  presenceFactor
attr title  "Presence Factor, stats"
statistic DVESystem.client[1] 	clientMoves:stats
field count 86
field mean 43.5
field stddev 24.969981978368
field sum 3741
field sqrsum 215731
field min 1
field max 86
attr interpolationmode  none
attr source  move
attr title  "Moves, stats"
statistic DVESystem.client[1] 	clientNoMoves:stats
field count 14
field mean 7.5
field stddev 4.1833001326704
field sum 105
field sqrsum 1015
field min 1
field max 14
attr interpolationmode  none
attr source  noMove
attr title  "No moves, stats"
statistic DVESystem.client[1] 	clientMovesLost:stats
field count 0
field mean 0
field stddev -1.#IND
field sum 0
field sqrsum 0
field min 0
field max 0
attr interpolationmode  none
attr source  moveLost
attr title  "Moves lost, stats"
statistic DVESystem.client[1] 	dveResponse:stats
field count 86
field mean 0.57995127580831
field stddev 0.20214580974005
field sum 49.875809719515
field sqrsum 32.39888839242
field min 0.197586893693
field max 1.458924790039
attr interpolationmode  none
attr source  sysResponse
attr title  "DVE response time, stats"
statistic DVESystem.client[2] 	clientPresenceFactor:stats
field count 968
field mean 4.4307851239669
field stddev 2.0049995946807
field sum 4289
field sqrsum 22891
field min 0
field max 12
attr interpolationmode  none
attr source  presenceFactor
attr title  "Presence Factor, stats"
statistic DVESystem.client[2] 	clientMoves:stats
field count 88
field mean 44.5
field stddev 25.547341675146
field sum 3916
field sqrsum 231044
field min 1
field max 88
attr interpolationmode  none
attr source  move
attr title  "Moves, stats"
statistic DVESystem.client[2] 	clientNoMoves:stats
field count 12
field mean 6.5
field stddev 3.605551275464
field sum 78
field sqrsum 650
field min 1
field max 12
attr interpolationmode  none
attr source  noMove
attr title  "No moves, stats"
statistic DVESystem.client[2] 	clientMovesLost:stats
field count 0
field mean 0
field stddev -1.#IND
field sum 0
field sqrsum 0
field min 0
field max 0
attr interpolationmode  none
attr source  moveLost
attr title  "Moves lost, stats"
statistic DVESystem.client[2] 	dveResponse:stats
field count 88
field mean 0.55194694653824
field stddev 0.18764416702063
field sum 48.571331295365
field sqrsum 29.872097005041
field min 0.238756101291
field max 1.169323777872
attr interpolationmode  none
attr source  sysResponse
attr title  "DVE response time, stats"
statistic DVESystem.client[3] 	clientPresenceFactor:stats
field count 959
field mean 5.0406673618352
field stddev 2.4840648662626
field sum 4834
field sqrsum 30278
field min 0
field max 13
attr interpolationmode  none
attr source  presenceFactor
attr title  "Presence Factor, stats"
statistic DVESystem.client[3] 	clientMoves:stats
field count 88
field mean 44.5
field stddev 25.547341675146
field sum 3916
field sqrsum 231044
field min 1
field max 88
attr interpolationmode  none
attr source  move
attr title  "Moves, stats"
statistic DVESystem.client[3] 	clientNoMoves:stats
field count 12
field mean 6.5
field stddev 3.605551275464
field sum 78
field sqrsum 650
field min 1
field max 12
attr interpolationmode  none
attr source  noMove
attr title  "No moves, stats"
statistic DVESystem.client[3] 	clientMovesLost:stats
field count 0
field mean 0
field stddev -1.#IND
field sum 0
field sqrsum 0
field min 0
field max 0
attr interpolationmode  none
attr source  moveLost
attr title  "Moves lost, stats"
statistic DVESystem.client[3] 	dveResponse:stats
field count 88
field mean 0.56410469227259
field stddev 0.19727985402315
field sum 49.641212919988
field sqrsum 31.388823788164
field min 0.26184231571
field max 1.186525947409
attr interpolationmode  none
attr source  sysResponse
attr title  "DVE response time, stats"
statistic DVESystem.client[4] 	clientPresenceFactor:stats
field count 891
field mean 5.0875420875421
field stddev 2.5041923762955
field sum 4533
field sqrsum 28643
field min 0
field max 13
attr interpolationmode  none
attr source  presenceFactor
attr title  "Presence Factor, stats"
statistic DVESystem.client[4] 	clientMoves:stats
field count 88
field mean 44.5
field stddev 25.547341675146
field sum 3916
field sqrsum 231044
field min 1
field max 88
attr interpolationmode  none
attr source  move
attr title  "Moves, stats"
statistic DVESystem.client[4] 	clientNoMoves:stats
field count 12
field mean 6.5
field stddev 3.605551275464
field sum 78
field sqrsum 650
field min 1
field max 12
attr interpolationmode  none
attr source  noMove
attr title  "No moves, stats"
statistic DVESystem.client[4] 	clientMovesLost:stats
field count 0
field mean 0
field stddev -1.#IND
field sum 0
field sqrsum 0
field min 0
field max 0
attr interpolationmode  none
attr source  moveLost
attr title  "Moves lost, stats"
statistic DVESystem.client[4] 	dveResponse:stats
field count 88
field mean 0.58828272073222
field stddev 0.20686360155027
field sum 51.768879424435
field sqrsum 34.177689056297
field min 0.227853214311
field max 1.409603753943
attr interpolationmode  none
attr source  sysResponse
attr title  "DVE response time, stats"
statistic DVESystem.client[5] 	clientPresenceFactor:stats
field count 936
field mean 4.4594017094017
field stddev 2.0434994795568
field sum 4174
field sqrsum 22518
field min 0
field max 11
attr interpolationmode  none
attr source  presenceFactor
attr title  "Presence Factor, stats"
statistic DVESystem.client[5] 	clientMoves:stats
field count 88
field mean 44.5
field stddev 25.547341675146
field sum 3916
field sqrsum 231044
field min 1
field max 88
attr interpolationmode  none
attr source  move
attr title  "Moves, stats"
statistic DVESystem.client[5] 	clientNoMoves:stats
field count 12
field mean 6.5
field stddev 3.605551275464
field sum 78
field sqrsum 650
field min 1
field max 12
attr interpolationmode  none
attr source  noMove
attr title  "No moves, stats"
statistic DVESystem.client[5] 	clientMovesLost:stats
field count 0
field mean 0
field stddev -1.#IND
field sum 0
field sqrsum 0
field min 0
field max 0
attr interpolationmode  none
attr source  moveLost
attr title  "Moves lost, stats"
statistic DVESystem.client[5] 	dveResponse:stats
field count 88
field mean 0.56969932811912
field stddev 0.19140736028775
field sum 50.133540874483
field sqrsum 31.748444201218
field min 0.241948603715
field max 1.211686953855
attr interpolationmode  none
attr source  sysResponse
attr title  "DVE response time, stats"
statistic DVESystem.client[6] 	clientPresenceFactor:stats
field count 991
field mean 5.0121089808274
field stddev 1.9954125904918
field sum 4967
field sqrsum 28837
field min 1
field max 12
attr interpolationmode  none
attr source  presenceFactor
attr title  "Presence Factor, stats"
statistic DVESystem.client[6] 	clientMoves:stats
field count 84
field mean 42.5
field stddev 24.392621835301
field sum 3570
field sqrsum 201110
field min 1
field max 84
attr interpolationmode  none
attr source  move
attr title  "Moves, stats"
statistic DVESystem.client[6] 	clientNoMoves:stats
field count 16
field mean 8.5
field stddev 4.7609522856952
field sum 136
field sqrsum 1496
field min 1
field max 16
attr interpolationmode  none
attr source  noMove
attr title  "No moves, stats"
statistic DVESystem.client[6] 	clientMovesLost:stats
field count 0
field mean 0
field stddev -1.#IND
field sum 0
field sqrsum 0
field min 0
field max 0
attr interpolationmode  none
attr source  moveLost
attr title  "Moves lost, stats"
statistic DVESystem.client[6] 	dveResponse:stats
field count 84
field mean 0.58893384253451
field stddev 0.17810533365107
field sum 49.470442772899
field sqrsum 31.767703273749
field min 0.193980446747
field max 1.194464191927
attr interpolationmode  none
attr source  sysResponse
attr title  "DVE response time, stats"
statistic DVESystem.client[7] 	clientPresenceFactor:stats
field count 1022
field mean 5.1438356164384
field stddev 2.3586081663253
field sum 5257
field sqrsum 32721
field min 0
field max 13
attr interpolationmode  none
attr source  presenceFactor
attr title  "Presence Factor, stats"
statistic DVESystem.client[7] 	clientMoves:stats
field count 86
field mean 43.5
field stddev 24.969981978368
field sum 3741
field sqrsum 215731
field min 1
field max 86
attr interpolationmode  none
attr source  move
attr title  "Moves, stats"
statistic DVESystem.client[7] 	clientNoMoves:stats
field count 14
field mean 7.5
field stddev 4.1833001326704
field sum 105
field sqrsum 1015
field min 1
field max 14
attr interpolationmode  none
attr source  noMove
attr title  "No moves, stats"
statistic DVESystem.client[7] 	clientMovesLost:stats
field count 0
field mean 0
field stddev -1.#IND
field sum 0
field sqrsum 0
field min 0
field max 0
attr interpolationmode  none
attr source  moveLost
attr title  "Moves lost, stats"
statistic DVESystem.client[7] 	dveResponse:stats
field count 86
field mean 0.58858324860402
field stddev 0.18527364051367
field sum 50.618159379946
field sqrsum 32.710738045086
field min 0.199555934002
field max 1.03856042717
attr interpolationmode  none
attr source  sysResponse
attr title  "DVE response time, stats"
statistic DVESystem.client[8] 	clientPresenceFactor:stats
field count 901
field mean 4.6215316315205
field stddev 2.3981340631482
field sum 4164
field sqrsum 24420
field min 0
field max 14
attr interpolationmode  none
attr source  presenceFactor
attr title  "Presence Factor, stats"
statistic DVESystem.client[8] 	clientMoves:stats
field count 84
field mean 42.5
field stddev 24.392621835301
field sum 3570
field sqrsum 201110
field min 1
field max 84
attr interpolationmode  none
attr source  move
attr title  "Moves, stats"
statistic DVESystem.client[8] 	clientNoMoves:stats
field count 16
field mean 8.5
field stddev 4.7609522856952
field sum 136
field sqrsum 1496
field min 1
field max 16
attr interpolationmode  none
attr source  noMove
attr title  "No moves, stats"
statistic DVESystem.client[8] 	clientMovesLost:stats
field count 0
field mean 0
field stddev -1.#IND
field sum 0
field sqrsum 0
field min 0
field max 0
attr interpolationmode  none
attr source  moveLost
attr title  "Moves lost, stats"
statistic DVESystem.client[8] 	dveResponse:stats
field count 84
field mean 0.55439581569689
field stddev 0.20235670969235
field sum 46.569248518539
field sqrsum 29.2165002693
field min 0.191953042502
field max 1.21389313483
attr interpolationmode  none
attr source  sysResponse
attr title  "DVE response time, stats"
statistic DVESystem.client[9] 	clientPresenceFactor:stats
field count 944
field mean 4.6832627118644
field stddev 2.2999597836051
field sum 4421
field sqrsum 25693
field min 0
field max 14
attr interpolationmode  none
attr source  presenceFactor
attr title  "Presence Factor, stats"
statistic DVESystem.client[9] 	clientMoves:stats
field count 89
field mean 45
field stddev 25.836021365528
field sum 4005
field sqrsum 238965
field min 1
field max 89
attr interpolationmode  none
attr source  move
attr title  "Moves, stats"
statistic DVESystem.client[9] 	clientNoMoves:stats
field count 11
field mean 6
field stddev 3.3166247903554
field sum 66
field sqrsum 506
field min 1
field max 11
attr interpolationmode  none
attr source  noMove
attr title  "No moves, stats"
statistic DVESystem.client[9] 	clientMovesLost:stats
field count 0
field mean 0
field stddev -1.#IND
field sum 0
field sqrsum 0
field min 0
field max 0
attr interpolationmode  none
attr source  moveLost
attr title  "Moves lost, stats"
statistic DVESystem.client[9] 	dveResponse:stats
field count 89
field mean 0.57176850206799
field stddev 0.20092456715734
field sum 50.887396684051
field sqrsum 32.648430564667
field min 0.190692334275
field max 1.092147665835
attr interpolationmode  none
attr source  sysResponse
attr title  "DVE response time, stats"
statistic DVESystem.client[10] 	clientPresenceFactor:stats
field count 954
field mean 4.748427672956
field stddev 2.2197299594488
field sum 4530
field sqrsum 26206
field min 0
field max 12
attr interpolationmode  none
attr source  presenceFactor
attr title  "Presence Factor, stats"
statistic DVESystem.client[10] 	clientMoves:stats
field count 88
field mean 44.5
field stddev 25.547341675146
field sum 3916
field sqrsum 231044
field min 1
field max 88
attr interpolationmode  none
attr source  move
attr title  "Moves, stats"
statistic DVESystem.client[10] 	clientNoMoves:stats
field count 12
field mean 6.5
field stddev 3.605551275464
field sum 78
field sqrsum 650
field min 1
field max 12
attr interpolationmode  none
attr source  noMove
attr title  "No moves, stats"
statistic DVESystem.client[10] 	clientMovesLost:stats
field count 0
field mean 0
field stddev -1.#IND
field sum 0
field sqrsum 0
field min 0
field max 0
attr interpolationmode  none
attr source  moveLost
attr title  "Moves lost, stats"
statistic DVESystem.client[10] 	dveResponse:stats
field count 88
field mean 0.63387213505286
field stddev 0.21637565148224
field sum 55.780747884652
field sqrsum 39.43106451872
field min 0.263559318097
field max 1.219303773176
attr interpolationmode  none
attr source  sysResponse
attr title  "DVE response time, stats"
statistic DVESystem.client[11] 	clientPresenceFactor:stats
field count 968
field mean 4.7603305785124
field stddev 2.2607657400424
field sum 4608
field sqrsum 26878
field min 0
field max 14
attr interpolationmode  none
attr source  presenceFactor
attr title  "Presence Factor, stats"
statistic DVESystem.client[11] 	clientMoves:stats
field count 83
field mean 42
field stddev 24.103941586388
field sum 3486
field sqrsum 194054
field min 1
field max 83
attr interpolationmode  none
attr source  move
attr title  "Moves, stats"
statistic DVESystem.client[11] 	clientNoMoves:stats
field count 17
field mean 9
field stddev 5.049752469181
field sum 153
field sqrsum 1785
field min 1
field max 17
attr interpolationmode  none
attr source  noMove
attr title  "No moves, stats"
statistic DVESystem.client[11] 	clientMovesLost:stats
field count 0
field mean 0
field stddev -1.#IND
field sum 0
field sqrsum 0
field min 0
field max 0
attr interpolationmode  none
attr source  moveLost
attr title  "Moves lost, stats"
statistic DVESystem.client[11] 	dveResponse:stats
field count 83
field mean 0.60115420196106
field stddev 0.22818291980976
field sum 49.895798762768
field sqrsum 34.26459956766
field min 0.192499241196
field max 1.234592808724
attr interpolationmode  none
attr source  sysResponse
attr title  "DVE response time, stats"
statistic DVESystem.client[12] 	clientPresenceFactor:stats
field count 1007
field mean 4.9791459781529
field stddev 2.2326339020755
field sum 5014
field sqrsum 29980
field min 0
field max 12
attr interpolationmode  none
attr source  presenceFactor
attr title  "Presence Factor, stats"
statistic DVESystem.client[12] 	clientMoves:stats
field count 88
field mean 44.5
field stddev 25.547341675146
field sum 3916
field sqrsum 231044
field min 1
field max 88
attr interpolationmode  none
attr source  move
attr title  "Moves, stats"
statistic DVESystem.client[12] 	clientNoMoves:stats
field count 12
field mean 6.5
field stddev 3.605551275464
field sum 78
field sqrsum 650
field min 1
field max 12
attr interpolationmode  none
attr source  noMove
attr title  "No moves, stats"
statistic DVESystem.client[12] 	clientMovesLost:stats
field count 0
field mean 0
field stddev -1.#IND
field sum 0
field sqrsum 0
field min 0
field max 0
attr interpolationmode  none
attr source  moveLost
attr title  "Moves lost, stats"
statistic DVESystem.client[12] 	dveResponse:stats
field count 88
field mean 0.60784834218055
field stddev 0.22515136997749
field sum 53.490654111888
field sqrsum 36.924508552103
field min 0.194758532708
field max 1.220669416152
attr interpolationmode  none
attr source  sysResponse
attr title  "DVE response time, stats"
statistic DVESystem.client[13] 	clientPresenceFactor:stats
field count 876
field mean 4.25
field stddev 2.0614142163642
field sum 3723
field sqrsum 19541
field min 0
field max 10
attr interpolationmode  none
attr source  presenceFactor
attr title  "Presence Factor, stats"
statistic DVESystem.client[13] 	clientMoves:stats
field count 83
field mean 42
field stddev 24.103941586388
field sum 3486
field sqrsum 194054
field min 1
field max 83
attr interpolationmode  none
attr source  move
attr title  "Moves, stats"
statistic DVESystem.client[13] 	clientNoMoves:stats
field count 17
field mean 9
field stddev 5.049752469181
field sum 153
field sqrsum 1785
field min 1
field max 17
attr interpolationmode  none
attr source  noMove
attr title  "No moves, stats"
statistic DVESystem.client[13] 	clientMovesLost:stats
field count 0
field mean 0
field stddev -1.#IND
field sum 0
field sqrsum 0
field min 0
field max 0
attr interpolationmode  none
attr source  moveLost
attr title  "Moves lost, stats"
statistic DVESystem.client[13] 	dveResponse:stats
field count 83
field mean 0.5859503828582
field stddev 0.21358135402415
field sum 48.633881777231
field sqrsum 32.237635219766
field min 0.215659540929
field max 1.217784323835
attr interpolationmode  none
attr source  sysResponse
attr title  "DVE response time, stats"
statistic DVESystem.client[14] 	clientPresenceFactor:stats
field count 1001
field mean 4.974025974026
field stddev 2.36078899424
field sum 4979
field sqrsum 30339
field min 0
field max 13
attr interpolationmode  none
attr source  presenceFactor
attr title  "Presence Factor, stats"
statistic DVESystem.client[14] 	clientMoves:stats
field count 85
field mean 43
field stddev 24.681301964578
field sum 3655
field sqrsum 208335
field min 1
field max 85
attr interpolationmode  none
attr source  move
attr title  "Moves, stats"
statistic DVESystem.client[14] 	clientNoMoves:stats
field count 15
field mean 8
field stddev 4.4721359549996
field sum 120
field sqrsum 1240
field min 1
field max 15
attr interpolationmode  none
attr source  noMove
attr title  "No moves, stats"
statistic DVESystem.client[14] 	clientMovesLost:stats
field count 0
field mean 0
field stddev -1.#IND
field sum 0
field sqrsum 0
field min 0
field max 0
attr interpolationmode  none
attr source  moveLost
attr title  "Moves lost, stats"
statistic DVESystem.client[14] 	dveResponse:stats
field count 85
field mean 0.59577629099359
field stddev 0.20656227629807
field sum 50.640984734455
field sqrsum 33.754807872469
field min 0.184531560039
field max 1.205456790734
attr interpolationmode  none
attr source  sysResponse
attr title  "DVE response time, stats"
statistic DVESystem.client[15] 	clientPresenceFactor:stats
field count 890
field mean 4.1820224719101
field stddev 2.1255614912389
field sum 3722
field sqrsum 19582
field min 0
field max 16
attr interpolationmode  none
attr source  presenceFactor
attr title  "Presence Factor, stats"
statistic DVESystem.client[15] 	clientMoves:stats
field count 82
field mean 41.5
field stddev 23.815261213488
field sum 3403
field sqrsum 187165
field min 1
field max 82
attr interpolationmode  none
attr source  move
attr title  "Moves, stats"
statistic DVESystem.client[15] 	clientNoMoves:stats
field count 18
field mean 9.5
field stddev 5.3385391260157
field sum 171
field sqrsum 2109
field min 1
field max 18
attr interpolationmode  none
attr source  noMove
attr title  "No moves, stats"
statistic DVESystem.client[15] 	clientMovesLost:stats
field count 0
field mean 0
field stddev -1.#IND
field sum 0
field sqrsum 0
field min 0
field max 0
attr interpolationmode  none
attr source  moveLost
attr title  "Moves lost, stats"
statistic DVESystem.client[15] 	dveResponse:stats
field count 82
field mean 0.56352376961006
field stddev 0.18434318769287
field sum 46.208949108025
field sqrsum 28.792416469824
field min 0.259326301051
field max 1.182281172904
attr interpolationmode  none
attr source  sysResponse
attr title  "DVE response time, stats"
statistic DVESystem.client[16] 	clientPresenceFactor:stats
field count 875
field mean 4.3017142857143
field stddev 2.2222989489497
field sum 3764
field sqrsum 20508
field min 0
field max 12
attr interpolationmode  none
attr source  presenceFactor
attr title  "Presence Factor, stats"
statistic DVESystem.client[16] 	clientMoves:stats
field count 87
field mean 44
field stddev 25.25866188063
field sum 3828
field sqrsum 223300
field min 1
field max 87
attr interpolationmode  none
attr source  move
attr title  "Moves, stats"
statistic DVESystem.client[16] 	clientNoMoves:stats
field count 13
field mean 7
field stddev 3.8944404818493
field sum 91
field sqrsum 819
field min 1
field max 13
attr interpolationmode  none
attr source  noMove
attr title  "No moves, stats"
statistic DVESystem.client[16] 	clientMovesLost:stats
field count 0
field mean 0
field stddev -1.#IND
field sum 0
field sqrsum 0
field min 0
field max 0
attr interpolationmode  none
attr source  moveLost
attr title  "Moves lost, stats"
statistic DVESystem.client[16] 	dveResponse:stats
field count 87
field mean 0.58236571381163
field stddev 0.19665480919486
field sum 50.665817101612
field sqrsum 32.831922544464
field min 0.241314151953
field max 1.176949168848
attr interpolationmode  none
attr source  sysResponse
attr title  "DVE response time, stats"
statistic DVESystem.client[17] 	clientPresenceFactor:stats
field count 954
field mean 4.6761006289308
field stddev 2.0652816627839
field sum 4461
field sqrsum 24925
field min 0
field max 10
attr interpolationmode  none
attr source  presenceFactor
attr title  "Presence Factor, stats"
statistic DVESystem.client[17] 	clientMoves:stats
field count 87
field mean 44
field stddev 25.25866188063
field sum 3828
field sqrsum 223300
field min 1
field max 87
attr interpolationmode  none
attr source  move
attr title  "Moves, stats"
statistic DVESystem.client[17] 	clientNoMoves:stats
field count 13
field mean 7
field stddev 3.8944404818493
field sum 91
field sqrsum 819
field min 1
field max 13
attr interpolationmode  none
attr source  noMove
attr title  "No moves, stats"
statistic DVESystem.client[17] 	clientMovesLost:stats
field count 0
field mean 0
field stddev -1.#IND
field sum 0
field sqrsum 0
field min 0
field max 0
attr interpolationmode  none
attr source  moveLost
attr title  "Moves lost, stats"
statistic DVESystem.client[17] 	dveResponse:stats
field count 87
field mean 0.61522667200065
field stddev 0.19143696444656
field sum 53.524720464057
field sqrsum 36.081573217527
field min 0.270155035523
field max 1.141108151808
attr interpolationmode  none
attr source  sysResponse
attr title  "DVE response time, stats"
statistic DVESystem.client[18] 	clientPresenceFactor:stats
field count 886
field mean 4.4232505643341
field stddev 2.2130279480225
field sum 3919
field sqrsum 21669
field min 0
field max 12
attr interpolationmode  none
attr source  presenceFactor
attr title  "Presence Factor, stats"
statistic DVESystem.client[18] 	clientMoves:stats
field count 84
field mean 42.5
field stddev 24.392621835301
field sum 3570
field sqrsum 201110
field min 1
field max 84
attr interpolationmode  none
attr source  move
attr title  "Moves, stats"
statistic DVESystem.client[18] 	clientNoMoves:stats
field count 16
field mean 8.5
field stddev 4.7609522856952
field sum 136
field sqrsum 1496
field min 1
field max 16
attr interpolationmode  none
attr source  noMove
attr title  "No moves, stats"
statistic DVESystem.client[18] 	clientMovesLost:stats
field count 0
field mean 0
field stddev -1.#IND
field sum 0
field sqrsum 0
field min 0
field max 0
attr interpolationmode  none
attr source  moveLost
attr title  "Moves lost, stats"
statistic DVESystem.client[18] 	dveResponse:stats
field count 84
field mean 0.56014693318742
field stddev 0.22263524712848
field sum 47.052342387743
field sqrsum 30.470240908687
field min 0.176485150833
field max 1.238014662389
attr interpolationmode  none
attr source  sysResponse
attr title  "DVE response time, stats"
statistic DVESystem.client[19] 	clientPresenceFactor:stats
field count 976
field mean 4.7551229508197
field stddev 2.2510338104162
field sum 4641
field sqrsum 27009
field min 0
field max 13
attr interpolationmode  none
attr source  presenceFactor
attr title  "Presence Factor, stats"
statistic DVESystem.client[19] 	clientMoves:stats
field count 87
field mean 44
field stddev 25.25866188063
field sum 3828
field sqrsum 223300
field min 1
field max 87
attr interpolationmode  none
attr source  move
attr title  "Moves, stats"
statistic DVESystem.client[19] 	clientNoMoves:stats
field count 13
field mean 7
field stddev 3.8944404818493
field sum 91
field sqrsum 819
field min 1
field max 13
attr interpolationmode  none
attr source  noMove
attr title  "No moves, stats"
statistic DVESystem.client[19] 	clientMovesLost:stats
field count 0
field mean 0
field stddev -1.#IND
field sum 0
field sqrsum 0
field min 0
field max 0
attr interpolationmode  none
attr source  moveLost
attr title  "Moves lost, stats"
statistic DVESystem.client[19] 	dveResponse:stats
field count 87
field mean 0.56383707545463
field stddev 0.20752256663852
field sum 49.053825564553
field sqrsum 31.362008493304
field min 0.179084175188
field max 1.147433197687
attr interpolationmode  none
attr source  sysResponse
attr title  "DVE response time, stats"
statistic DVESystem.client[20] 	clientPresenceFactor:stats
field count 894
field mean 4.6364653243848
field stddev 2.389518740271
field sum 4145
field sqrsum 24317
field min 0
field max 14
attr interpolationmode  none
attr source  presenceFactor
attr title  "Presence Factor, stats"
statistic DVESystem.client[20] 	clientMoves:stats
field count 87
field mean 44
field stddev 25.25866188063
field sum 3828
field sqrsum 223300
field min 1
field max 87
attr interpolationmode  none
attr source  move
attr title  "Moves, stats"
statistic DVESystem.client[20] 	clientNoMoves:stats
field count 13
field mean 7
field stddev 3.8944404818493
field sum 91
field sqrsum 819
field min 1
field max 13
attr interpolationmode  none
attr source  noMove
attr title  "No moves, stats"
statistic DVESystem.client[20] 	clientMovesLost:stats
field count 0
field mean 0
field stddev -1.#IND
field sum 0
field sqrsum 0
field min 0
field max 0
attr interpolationmode  none
attr source  moveLost
attr title  "Moves lost, stats"
statistic DVESystem.client[20] 	dveResponse:stats
field count 87
field mean 0.60982041839863
field stddev 0.2189706039729
field sum 53.054376400681
field sqrsum 36.477180799308
field min 0.158444123192
field max 1.124558595787
attr interpolationmode  none
attr source  sysResponse
attr title  "DVE response time, stats"
statistic DVESystem.client[21] 	clientPresenceFactor:stats
field count 1017
field mean 4.7817109144543
field stddev 2.0704947825807
field sum 4863
field sqrsum 27609
field min 0
field max 13
attr interpolationmode  none
attr source  presenceFactor
attr title  "Presence Factor, stats"
statistic DVESystem.client[21] 	clientMoves:stats
field count 94
field mean 47.5
field stddev 27.279418371121
field sum 4465
field sqrsum 281295
field min 1
field max 94
attr interpolationmode  none
attr source  move
attr title  "Moves, stats"
statistic DVESystem.client[21] 	clientNoMoves:stats
field count 6
field mean 3.5
field stddev 1.870828693387
field sum 21
field sqrsum 91
field min 1
field max 6
attr interpolationmode  none
attr source  noMove
attr title  "No moves, stats"
statistic DVESystem.client[21] 	clientMovesLost:stats
field count 0
field mean 0
field stddev -1.#IND
field sum 0
field sqrsum 0
field min 0
field max 0
attr interpolationmode  none
attr source  moveLost
attr title  "Moves lost, stats"
statistic DVESystem.client[21] 	dveResponse:stats
field count 94
field mean 0.59460288609247
field stddev 0.21006329012461
field sum 55.892671292692
field sqrsum 37.337716146844
field min 0.130668406419
field max 1.108292084136
attr interpolationmode  none
attr source  sysResponse
attr title  "DVE response time, stats"
statistic DVESystem.client[22] 	clientPresenceFactor:stats
field count 982
field mean 4.6812627291242
field stddev 2.2132110136735
field sum 4597
field sqrsum 26325
field min 0
field max 10
attr interpolationmode  none
attr source  presenceFactor
attr title  "Presence Factor, stats"
statistic DVESystem.client[22] 	clientMoves:stats
field count 80
field mean 40.5
field stddev 23.237900077245
field sum 3240
field sqrsum 173880
field min 1
field max 80
attr interpolationmode  none
attr source  move
attr title  "Moves, stats"
statistic DVESystem.client[22] 	clientNoMoves:stats
field count 20
field mean 10.5
field stddev 5.9160797830996
field sum 210
field sqrsum 2870
field min 1
field max 20
attr interpolationmode  none
attr source  noMove
attr title  "No moves, stats"
statistic DVESystem.client[22] 	clientMovesLost:stats
field count 0
field mean 0
field stddev -1.#IND
field sum 0
field sqrsum 0
field min 0
field max 0
attr interpolationmode  none
attr source  moveLost
attr title  "Moves lost, stats"
statistic DVESystem.client[22] 	dveResponse:stats
field count 80
field mean 0.57768992191758
field stddev 0.22196676056638
field sum 46.215193753406
field sqrsum 30.590321851721
field min 0.223856520295
field max 1.417831975604
attr interpolationmode  none
attr source  sysResponse
attr title  "DVE response time, stats"
statistic DVESystem.client[23] 	clientPresenceFactor:stats
field count 1055
field mean 5.0872037914692
field stddev 2.4576058703599
field sum 5367
field sqrsum 33669
field min 0
field max 14
attr interpolationmode  none
attr source  presenceFactor
attr title  "Presence Factor, stats"
statistic DVESystem.client[23] 	clientMoves:stats
field count 91
field mean 46
field stddev 26.413380447543
field sum 4186
field sqrsum 255346
field min 1
field max 91
attr interpolationmode  none
attr source  move
attr title  "Moves, stats"
statistic DVESystem.client[23] 	clientNoMoves:stats
field count 9
field mean 5
field stddev 2.7386127875258
field sum 45
field sqrsum 285
field min 1
field max 9
attr interpolationmode  none
attr source  noMove
attr title  "No moves, stats"
statistic DVESystem.client[23] 	clientMovesLost:stats
field count 0
field mean 0
field stddev -1.#IND
field sum 0
field sqrsum 0
field min 0
field max 0
attr interpolationmode  none
attr source  moveLost
attr title  "Moves lost, stats"
statistic DVESystem.client[23] 	dveResponse:stats
field count 91
field mean 0.58426319626338
field stddev 0.24151831453842
field sum 53.167950859968
field sqrsum 36.313875571393
field min 0.175225569056
field max 1.80627110717
attr interpolationmode  none
attr source  sysResponse
attr title  "DVE response time, stats"
statistic DVESystem.client[24] 	clientPresenceFactor:stats
field count 962
field mean 4.8212058212058
field stddev 2.2211844018405
field sum 4638
field sqrsum 27102
field min 0
field max 11
attr interpolationmode  none
attr source  presenceFactor
attr title  "Presence Factor, stats"
statistic DVESystem.client[24] 	clientMoves:stats
field count 80
field mean 40.5
field stddev 23.237900077245
field sum 3240
field sqrsum 173880
field min 1
field max 80
attr interpolationmode  none
attr source  move
attr title  "Moves, stats"
statistic DVESystem.client[24] 	clientNoMoves:stats
field count 20
field mean 10.5
field stddev 5.9160797830996
field sum 210
field sqrsum 2870
field min 1
field max 20
attr interpolationmode  none
attr source  noMove
attr title  "No moves, stats"
statistic DVESystem.client[24] 	clientMovesLost:stats
field count 0
field mean 0
field stddev -1.#IND
field sum 0
field sqrsum 0
field min 0
field max 0
attr interpolationmode  none
attr source  moveLost
attr title  "Moves lost, stats"
statistic DVESystem.client[24] 	dveResponse:stats
field count 80
field mean 0.57884462082659
field stddev 0.19290611982818
field sum 46.307569666127
field sqrsum 29.744696519096
field min 0.194699304805
field max 1.298352006188
attr interpolationmode  none
attr source  sysResponse
attr title  "DVE response time, stats"
statistic DVESystem.client[25] 	clientPresenceFactor:stats
field count 929
field mean 4.5715823466093
field stddev 2.1089632641456
field sum 4247
field sqrsum 23543
field min 0
field max 11
attr interpolationmode  none
attr source  presenceFactor
attr title  "Presence Factor, stats"
statistic DVESystem.client[25] 	clientMoves:stats
field count 87
field mean 44
field stddev 25.25866188063
field sum 3828
field sqrsum 223300
field min 1
field max 87
attr interpolationmode  none
attr source  move
attr title  "Moves, stats"
statistic DVESystem.client[25] 	clientNoMoves:stats
field count 13
field mean 7
field stddev 3.8944404818493
field sum 91
field sqrsum 819
field min 1
field max 13
attr interpolationmode  none
attr source  noMove
attr title  "No moves, stats"
statistic DVESystem.client[25] 	clientMovesLost:stats
field count 0
field mean 0
field stddev -1.#IND
field sum 0
field sqrsum 0
field min 0
field max 0
attr interpolationmode  none
attr source  moveLost
attr title  "Moves lost, stats"
statistic DVESystem.client[25] 	dveResponse:stats
field count 87
field mean 0.57333282706626
field stddev 0.19909243643321
field sum 49.879955954765
field sqrsum 32.006666810549
field min 0.229923025997
field max 1.125020571179
attr interpolationmode  none
attr source  sysResponse
attr title  "DVE response time, stats"
statistic DVESystem.client[26] 	clientPresenceFactor:stats
field count 1014
field mean 4.8895463510848
field stddev 2.2238119916612
field sum 4958
field sqrsum 29252
field min 0
field max 12
attr interpolationmode  none
attr source  presenceFactor
attr title  "Presence Factor, stats"
statistic DVESystem.client[26] 	clientMoves:stats
field count 89
field mean 45
field stddev 25.836021365528
field sum 4005
field sqrsum 238965
field min 1
field max 89
attr interpolationmode  none
attr source  move
attr title  "Moves, stats"
statistic DVESystem.client[26] 	clientNoMoves:stats
field count 11
field mean 6
field stddev 3.3166247903554
[...]
field count 1280
field mean 8.9390625
field stddev 6.2578955210693
field sum 11442
field sqrsum 152368
field min 0
field max 37
attr interpolationmode  none
attr source  presenceFactor
attr title  "Presence Factor, stats"
statistic DVESystem.client[345] 	clientMoves:stats
field count 87
field mean 44
field stddev 25.25866188063
field sum 3828
field sqrsum 223300
field min 1
field max 87
attr interpolationmode  none
attr source  move
attr title  "Moves, stats"
statistic DVESystem.client[345] 	clientNoMoves:stats
field count 13
field mean 7
field stddev 3.8944404818493
field sum 91
field sqrsum 819
field min 1
field max 13
attr interpolationmode  none
attr source  noMove
attr title  "No moves, stats"
statistic DVESystem.client[345] 	clientMovesLost:stats
field count 0
field mean 0
field stddev -1.#IND
field sum 0
field sqrsum 0
field min 0
field max 0
attr interpolationmode  none
attr source  moveLost
attr title  "Moves lost, stats"
statistic DVESystem.client[345] 	dveResponse:stats
field count 87
field mean 0.44387966268364
field stddev 0.17206977093132
field sum 38.617530653477
field sqrsum 19.687825002019
field min 0.017590149023
field max 0.913756903644
attr interpolationmode  none
attr source  sysResponse
attr title  "DVE response time, stats"
statistic DVESystem.client[346] 	clientPresenceFactor:stats
field count 1854
field mean 14.310140237325
field stddev 13.138365923038
field sum 26531
field sqrsum 699521
field min 0
field max 82
attr interpolationmode  none
attr source  presenceFactor
attr title  "Presence Factor, stats"
statistic DVESystem.client[346] 	clientMoves:stats
field count 90
field mean 45.5
field stddev 26.124700955226
field sum 4095
field sqrsum 247065
field min 1
field max 90
attr interpolationmode  none
attr source  move
attr title  "Moves, stats"
statistic DVESystem.client[346] 	clientNoMoves:stats
field count 10
field mean 5.5
field stddev 3.0276503540975
field sum 55
field sqrsum 385
field min 1
field max 10
attr interpolationmode  none
attr source  noMove
attr title  "No moves, stats"
statistic DVESystem.client[346] 	clientMovesLost:stats
field count 0
field mean 0
field stddev -1.#IND
field sum 0
field sqrsum 0
field min 0
field max 0
attr interpolationmode  none
attr source  moveLost
attr title  "Moves lost, stats"
statistic DVESystem.client[346] 	dveResponse:stats
field count 90
field mean 0.47212834140964
field stddev 0.23175965316031
field sum 42.491550726868
field sqrsum 24.841881146736
field min 0.160500907536
field max 1.421779700924
attr interpolationmode  none
attr source  sysResponse
attr title  "DVE response time, stats"
statistic DVESystem.client[347] 	clientPresenceFactor:stats
field count 1654
field mean 12.3361547763
field stddev 10.088450265649
field sum 20404
field sqrsum 419944
field min 0
field max 61
attr interpolationmode  none
attr source  presenceFactor
attr title  "Presence Factor, stats"
statistic DVESystem.client[347] 	clientMoves:stats
field count 89
field mean 45
field stddev 25.836021365528
field sum 4005
field sqrsum 238965
field min 1
field max 89
attr interpolationmode  none
attr source  move
attr title  "Moves, stats"
statistic DVESystem.client[347] 	clientNoMoves:stats
field count 11
field mean 6
field stddev 3.3166247903554
field sum 66
field sqrsum 506
field min 1
field max 11
attr interpolationmode  none
attr source  noMove
attr title  "No moves, stats"
statistic DVESystem.client[347] 	clientMovesLost:stats
field count 0
field mean 0
field stddev -1.#IND
field sum 0
field sqrsum 0
field min 0
field max 0
attr interpolationmode  none
attr source  moveLost
attr title  "Moves lost, stats"
statistic DVESystem.client[347] 	dveResponse:stats
field count 89
field mean 0.44004857711681
field stddev 0.18744111873733
field sum 39.164323363396
field sqrsum 20.326011993233
field min 0.127507650997
field max 0.934050144642
attr interpolationmode  none
attr source  sysResponse
attr title  "DVE response time, stats"
statistic DVESystem.client[348] 	clientPresenceFactor:stats
field count 1514
field mean 10.514531043593
field stddev 7.9062659864611
field sum 15919
field sqrsum 261957
field min 0
field max 44
attr interpolationmode  none
attr source  presenceFactor
attr title  "Presence Factor, stats"
statistic DVESystem.client[348] 	clientMoves:stats
field count 87
field mean 44
field stddev 25.25866188063
field sum 3828
field sqrsum 223300
field min 1
field max 87
attr interpolationmode  none
attr source  move
attr title  "Moves, stats"
statistic DVESystem.client[348] 	clientNoMoves:stats
field count 13
field mean 7
field stddev 3.8944404818493
field sum 91
field sqrsum 819
field min 1
field max 13
attr interpolationmode  none
attr source  noMove
attr title  "No moves, stats"
statistic DVESystem.client[348] 	clientMovesLost:stats
field count 0
field mean 0
field stddev -1.#IND
field sum 0
field sqrsum 0
field min 0
field max 0
attr interpolationmode  none
attr source  moveLost
attr title  "Moves lost, stats"
statistic DVESystem.client[348] 	dveResponse:stats
field count 87
field mean 0.47365965216601
field stddev 0.17309849326146
field sum 41.208389738443
field sqrsum 22.0955771496
field min 0.174499698057
field max 0.862579767608
attr interpolationmode  none
attr source  sysResponse
attr title  "DVE response time, stats"
statistic DVESystem.client[349] 	clientPresenceFactor:stats
field count 1449
field mean 10.150448585231
field stddev 7.7130513900885
field sum 14708
field sqrsum 235436
field min 0
field max 42
attr interpolationmode  none
attr source  presenceFactor
attr title  "Presence Factor, stats"
statistic DVESystem.client[349] 	clientMoves:stats
field count 88
field mean 44.5
field stddev 25.547341675146
field sum 3916
field sqrsum 231044
field min 1
field max 88
attr interpolationmode  none
attr source  move
attr title  "Moves, stats"
statistic DVESystem.client[349] 	clientNoMoves:stats
field count 12
field mean 6.5
field stddev 3.605551275464
field sum 78
field sqrsum 650
field min 1
field max 12
attr interpolationmode  none
attr source  noMove
attr title  "No moves, stats"
statistic DVESystem.client[349] 	clientMovesLost:stats
field count 0
field mean 0
field stddev -1.#IND
field sum 0
field sqrsum 0
field min 0
field max 0
attr interpolationmode  none
attr source  moveLost
attr title  "Moves lost, stats"
statistic DVESystem.client[349] 	dveResponse:stats
field count 88
field mean 0.43756224050876
field stddev 0.18489500367584
field sum 38.505477164771
field sqrsum 19.822738987509
field min 0.155576426504
field max 1.199694408737
attr interpolationmode  none
attr source  sysResponse
attr title  "DVE response time, stats"
statistic DVESystem.client[350] 	clientPresenceFactor:stats
field count 1707
field mean 13.767428236673
field stddev 10.90512933642
field sum 23501
field sqrsum 526429
field min 0
field max 55
attr interpolationmode  none
attr source  presenceFactor
attr title  "Presence Factor, stats"
statistic DVESystem.client[350] 	clientMoves:stats
field count 90
field mean 45.5
field stddev 26.124700955226
field sum 4095
field sqrsum 247065
field min 1
field max 90
attr interpolationmode  none
attr source  move
attr title  "Moves, stats"
statistic DVESystem.client[350] 	clientNoMoves:stats
field count 10
field mean 5.5
field stddev 3.0276503540975
field sum 55
field sqrsum 385
field min 1
field max 10
attr interpolationmode  none
attr source  noMove
attr title  "No moves, stats"
statistic DVESystem.client[350] 	clientMovesLost:stats
field count 0
field mean 0
field stddev -1.#IND
field sum 0
field sqrsum 0
field min 0
field max 0
attr interpolationmode  none
attr source  moveLost
attr title  "Moves lost, stats"
statistic DVESystem.client[350] 	dveResponse:stats
field count 90
field mean 0.49387407158012
field stddev 0.21835252338879
field sum 44.448666442211
field sqrsum 26.195370249974
field min 0.147344295048
field max 1.283351317959
attr interpolationmode  none
attr source  sysResponse
attr title  "DVE response time, stats"
statistic DVESystem.client[351] 	clientPresenceFactor:stats
field count 1640
field mean 11.201219512195
field stddev 8.1896226527982
field sum 18370
field sqrsum 315694
field min 1
field max 47
attr interpolationmode  none
attr source  presenceFactor
attr title  "Presence Factor, stats"
statistic DVESystem.client[351] 	clientMoves:stats
field count 89
field mean 45
field stddev 25.836021365528
field sum 4005
field sqrsum 238965
field min 1
field max 89
attr interpolationmode  none
attr source  move
attr title  "Moves, stats"
statistic DVESystem.client[351] 	clientNoMoves:stats
field count 11
field mean 6
field stddev 3.3166247903554
field sum 66
field sqrsum 506
field min 1
field max 11
attr interpolationmode  none
attr source  noMove
attr title  "No moves, stats"
statistic DVESystem.client[351] 	clientMovesLost:stats
field count 0
field mean 0
field stddev -1.#IND
field sum 0
field sqrsum 0
field min 0
field max 0
attr interpolationmode  none
attr source  moveLost
attr title  "Moves lost, stats"
statistic DVESystem.client[351] 	dveResponse:stats
field count 89
field mean 0.42758101353002
field stddev 0.16328354734957
field sum 38.054710204172
field sqrsum 18.617685040176
field min 0.165728977962
field max 1.043876522941
attr interpolationmode  none
attr source  sysResponse
attr title  "DVE response time, stats"
statistic DVESystem.client[352] 	clientPresenceFactor:stats
field count 1541
field mean 12.140168721609
field stddev 10.030399363938
field sum 18708
field sqrsum 382056
field min 0
field max 64
attr interpolationmode  none
attr source  presenceFactor
attr title  "Presence Factor, stats"
statistic DVESystem.client[352] 	clientMoves:stats
field count 89
field mean 45
field stddev 25.836021365528
field sum 4005
field sqrsum 238965
field min 1
field max 89
attr interpolationmode  none
attr source  move
attr title  "Moves, stats"
statistic DVESystem.client[352] 	clientNoMoves:stats
field count 11
field mean 6
field stddev 3.3166247903554
field sum 66
field sqrsum 506
field min 1
field max 11
attr interpolationmode  none
attr source  noMove
attr title  "No moves, stats"
statistic DVESystem.client[352] 	clientMovesLost:stats
field count 0
field mean 0
field stddev -1.#IND
field sum 0
field sqrsum 0
field min 0
field max 0
attr interpolationmode  none
attr source  moveLost
attr title  "Moves lost, stats"
statistic DVESystem.client[352] 	dveResponse:stats
field count 89
field mean 0.42361674255751
field stddev 0.18252554441037
field sum 37.701890087618
field sqrsum 18.90292241106
field min 0.144505233015
field max 1.0807393796
attr interpolationmode  none
attr source  sysResponse
attr title  "DVE response time, stats"
statistic DVESystem.client[353] 	clientPresenceFactor:stats
field count 1535
field mean 11.101628664495
field stddev 7.7866827916143
field sum 17041
field sqrsum 282193
field min 0
field max 39
attr interpolationmode  none
attr source  presenceFactor
attr title  "Presence Factor, stats"
statistic DVESystem.client[353] 	clientMoves:stats
field count 86
field mean 43.5
field stddev 24.969981978368
field sum 3741
field sqrsum 215731
field min 1
field max 86
attr interpolationmode  none
attr source  move
attr title  "Moves, stats"
statistic DVESystem.client[353] 	clientNoMoves:stats
field count 14
field mean 7.5
field stddev 4.1833001326704
field sum 105
field sqrsum 1015
field min 1
field max 14
attr interpolationmode  none
attr source  noMove
attr title  "No moves, stats"
statistic DVESystem.client[353] 	clientMovesLost:stats
field count 0
field mean 0
field stddev -1.#IND
field sum 0
field sqrsum 0
field min 0
field max 0
attr interpolationmode  none
attr source  moveLost
attr title  "Moves lost, stats"
statistic DVESystem.client[353] 	dveResponse:stats
field count 86
field mean 0.43317858202407
field stddev 0.16043193944179
field sum 37.25335805407
field sqrsum 18.325121428907
field min 0.133404956182
field max 0.907742038784
attr interpolationmode  none
attr source  sysResponse
attr title  "DVE response time, stats"
statistic DVESystem.client[354] 	clientPresenceFactor:stats
field count 1444
field mean 10.080332409972
field stddev 7.6724652560276
field sum 14556
field sqrsum 231674
field min 0
field max 46
attr interpolationmode  none
attr source  presenceFactor
attr title  "Presence Factor, stats"
statistic DVESystem.client[354] 	clientMoves:stats
field count 90
field mean 45.5
field stddev 26.124700955226
field sum 4095
field sqrsum 247065
field min 1
field max 90
attr interpolationmode  none
attr source  move
attr title  "Moves, stats"
statistic DVESystem.client[354] 	clientNoMoves:stats
field count 10
field mean 5.5
field stddev 3.0276503540975
field sum 55
field sqrsum 385
field min 1
field max 10
attr interpolationmode  none
attr source  noMove
attr title  "No moves, stats"
statistic DVESystem.client[354] 	clientMovesLost:stats
field count 0
field mean 0
field stddev -1.#IND
field sum 0
field sqrsum 0
field min 0
field max 0
attr interpolationmode  none
attr source  moveLost
attr title  "Moves lost, stats"
statistic DVESystem.client[354] 	dveResponse:stats
field count 90
field mean 0.48578838328506
field stddev 0.21621423268557
field sum 43.720954495655
field sqrsum 25.399756703131
field min 0.194721846411
field max 1.031405295733
attr interpolationmode  none
attr source  sysResponse
attr title  "DVE response time, stats"
statistic DVESystem.client[355] 	clientPresenceFactor:stats
field count 1934
field mean 16.425025853154
field stddev 13.530112968174
field sum 31766
field sqrsum 875620
field min 0
field max 71
attr interpolationmode  none
attr source  presenceFactor
attr title  "Presence Factor, stats"
statistic DVESystem.client[355] 	clientMoves:stats
field count 85
field mean 43
field stddev 24.681301964578
field sum 3655
field sqrsum 208335
field min 1
field max 85
attr interpolationmode  none
attr source  move
attr title  "Moves, stats"
statistic DVESystem.client[355] 	clientNoMoves:stats
field count 15
field mean 8
field stddev 4.4721359549996
field sum 120
field sqrsum 1240
field min 1
field max 15
attr interpolationmode  none
attr source  noMove
attr title  "No moves, stats"
statistic DVESystem.client[355] 	clientMovesLost:stats
field count 0
field mean 0
field stddev -1.#IND
field sum 0
field sqrsum 0
field min 0
field max 0
attr interpolationmode  none
attr source  moveLost
attr title  "Moves lost, stats"
statistic DVESystem.client[355] 	dveResponse:stats
field count 85
field mean 0.40855590963527
field stddev 0.17732086975753
field sum 34.727252318998
field sqrsum 16.829210191853
field min 0.118200841857
field max 0.948493074142
attr interpolationmode  none
attr source  sysResponse
attr title  "DVE response time, stats"
statistic DVESystem.client[356] 	clientPresenceFactor:stats
field count 1904
field mean 15.25
field stddev 12.968432508349
field sum 29036
field sqrsum 762846
field min 0
field max 68
attr interpolationmode  none
attr source  presenceFactor
attr title  "Presence Factor, stats"
statistic DVESystem.client[356] 	clientMoves:stats
field count 88
field mean 44.5
field stddev 25.547341675146
field sum 3916
field sqrsum 231044
field min 1
field max 88
attr interpolationmode  none
attr source  move
attr title  "Moves, stats"
statistic DVESystem.client[356] 	clientNoMoves:stats
field count 12
field mean 6.5
field stddev 3.605551275464
field sum 78
field sqrsum 650
field min 1
field max 12
attr interpolationmode  none
attr source  noMove
attr title  "No moves, stats"
statistic DVESystem.client[356] 	clientMovesLost:stats
field count 0
field mean 0
field stddev -1.#IND
field sum 0
field sqrsum 0
field min 0
field max 0
attr interpolationmode  none
attr source  moveLost
attr title  "Moves lost, stats"
statistic DVESystem.client[356] 	dveResponse:stats
field count 88
field mean 0.41091894476823
field stddev 0.16457350005575
field sum 36.160867139604
field sqrsum 17.215531379002
field min 0.135961773884
field max 1.039190806809
attr interpolationmode  none
attr source  sysResponse
attr title  "DVE response time, stats"
statistic DVESystem.client[357] 	clientPresenceFactor:stats
field count 1732
field mean 14.042147806005
field stddev 12.335431376739
field sum 24321
field sqrsum 604913
field min 0
field max 79
attr interpolationmode  none
attr source  presenceFactor
attr title  "Presence Factor, stats"
statistic DVESystem.client[357] 	clientMoves:stats
field count 84
field mean 42.5
field stddev 24.392621835301
field sum 3570
field sqrsum 201110
field min 1
field max 84
attr interpolationmode  none
attr source  move
attr title  "Moves, stats"
statistic DVESystem.client[357] 	clientNoMoves:stats
field count 16
field mean 8.5
field stddev 4.7609522856952
field sum 136
field sqrsum 1496
field min 1
field max 16
attr interpolationmode  none
attr source  noMove
attr title  "No moves, stats"
statistic DVESystem.client[357] 	clientMovesLost:stats
field count 0
field mean 0
field stddev -1.#IND
field sum 0
field sqrsum 0
field min 0
field max 0
attr interpolationmode  none
attr source  moveLost
attr title  "Moves lost, stats"
statistic DVESystem.client[357] 	dveResponse:stats
field count 84
field mean 0.4560557366549
field stddev 0.18261771738105
field sum 38.308681879012
field sqrsum 20.238880282833
field min 0.180715436742
field max 1.101098643481
attr interpolationmode  none
attr source  sysResponse
attr title  "DVE response time, stats"
statistic DVESystem.client[358] 	clientPresenceFactor:stats
field count 1660
field mean 12.30421686747
field stddev 9.3230602147195
field sum 20425
field sqrsum 395513
field min 0
field max 51
attr interpolationmode  none
attr source  presenceFactor
attr title  "Presence Factor, stats"
statistic DVESystem.client[358] 	clientMoves:stats
field count 90
field mean 45.5
field stddev 26.124700955226
field sum 4095
field sqrsum 247065
field min 1
field max 90
attr interpolationmode  none
attr source  move
attr title  "Moves, stats"
statistic DVESystem.client[358] 	clientNoMoves:stats
field count 10
field mean 5.5
field stddev 3.0276503540975
field sum 55
field sqrsum 385
field min 1
field max 10
attr interpolationmode  none
attr source  noMove
attr title  "No moves, stats"
statistic DVESystem.client[358] 	clientMovesLost:stats
field count 0
field mean 0
field stddev -1.#IND
field sum 0
field sqrsum 0
field min 0
field max 0
attr interpolationmode  none
attr source  moveLost
attr title  "Moves lost, stats"
statistic DVESystem.client[358] 	dveResponse:stats
field count 90
field mean 0.44791234992029
field stddev 0.18973758112894
field sum 40.312111492826
field sqrsum 21.260323711647
field min 0.110052457677
field max 0.94986627034
attr interpolationmode  none
attr source  sysResponse
attr title  "DVE response time, stats"
statistic DVESystem.client[359] 	clientPresenceFactor:stats
field count 1481
field mean 12.132343011479
field stddev 11.069804948651
field sum 17968
field sqrsum 399354
field min 0
field max 68
attr interpolationmode  none
attr source  presenceFactor
attr title  "Presence Factor, stats"
statistic DVESystem.client[359] 	clientMoves:stats
field count 87
field mean 44
field stddev 25.25866188063
field sum 3828
field sqrsum 223300
field min 1
field max 87
attr interpolationmode  none
attr source  move
attr title  "Moves, stats"
statistic DVESystem.client[359] 	clientNoMoves:stats
field count 13
field mean 7
field stddev 3.8944404818493
field sum 91
field sqrsum 819
field min 1
field max 13
attr interpolationmode  none
attr source  noMove
attr title  "No moves, stats"
statistic DVESystem.client[359] 	clientMovesLost:stats
field count 0
field mean 0
field stddev -1.#IND
field sum 0
field sqrsum 0
field min 0
field max 0
attr interpolationmode  none
attr source  moveLost
attr title  "Moves lost, stats"
statistic DVESystem.client[359] 	dveResponse:stats
field count 87
field mean 0.44093412389007
field stddev 0.17304194104102
field sum 38.361268778436
field sqrsum 19.489934589026
field min 0.165109576909
field max 0.974597748223
attr interpolationmode  none
attr source  sysResponse
attr title  "DVE response time, stats"
