version 2
run General-0-20150712-23:45:52-1204
attr configname General
attr datetime 20150712-23:45:52
attr experiment General
attr inifile omnetpp.ini
attr iterationvars ""
attr iterationvars2 $repetition=0
attr measurement ""
attr network DVESystem
attr processid 1204
attr repetition 0
attr replication #0
attr resultdir results
attr runnumber 0
attr seedset 0

scalar DVESystem.source[0] 	created:last 	101
attr interpolationmode  none
attr title  "the number of jobs created, last"
scalar DVESystem.source[1] 	created:last 	101
attr interpolationmode  none
attr title  "the number of jobs created, last"
scalar DVESystem.source[2] 	created:last 	101
attr interpolationmode  none
attr title  "the number of jobs created, last"
scalar DVESystem.source[3] 	created:last 	101
attr interpolationmode  none
attr title  "the number of jobs created, last"
scalar DVESystem.source[4] 	created:last 	101
attr interpolationmode  none
attr title  "the number of jobs created, last"
scalar DVESystem.source[5] 	created:last 	101
attr interpolationmode  none
attr title  "the number of jobs created, last"
scalar DVESystem.source[6] 	created:last 	101
attr interpolationmode  none
attr title  "the number of jobs created, last"
scalar DVESystem.source[7] 	created:last 	101
attr interpolationmode  none
attr title  "the number of jobs created, last"
scalar DVESystem.source[8] 	created:last 	101
attr interpolationmode  none
attr title  "the number of jobs created, last"
scalar DVESystem.source[9] 	created:last 	101
attr interpolationmode  none
attr title  "the number of jobs created, last"
scalar DVESystem.source[10] 	created:last 	101
attr interpolationmode  none
attr title  "the number of jobs created, last"
scalar DVESystem.source[11] 	created:last 	101
attr interpolationmode  none
attr title  "the number of jobs created, last"
scalar DVESystem.source[12] 	created:last 	101
attr interpolationmode  none
attr title  "the number of jobs created, last"
scalar DVESystem.source[13] 	created:last 	101
attr interpolationmode  none
attr title  "the number of jobs created, last"
scalar DVESystem.source[14] 	created:last 	101
attr interpolationmode  none
attr title  "the number of jobs created, last"
scalar DVESystem.source[15] 	created:last 	101
attr interpolationmode  none
attr title  "the number of jobs created, last"
scalar DVESystem.source[16] 	created:last 	101
attr interpolationmode  none
attr title  "the number of jobs created, last"
scalar DVESystem.source[17] 	created:last 	101
attr interpolationmode  none
attr title  "the number of jobs created, last"
scalar DVESystem.source[18] 	created:last 	101
attr interpolationmode  none
attr title  "the number of jobs created, last"
scalar DVESystem.source[19] 	created:last 	101
attr interpolationmode  none
attr title  "the number of jobs created, last"
scalar DVESystem.source[20] 	created:last 	101
attr interpolationmode  none
attr title  "the number of jobs created, last"
scalar DVESystem.source[21] 	created:last 	101
attr interpolationmode  none
attr title  "the number of jobs created, last"
scalar DVESystem.source[22] 	created:last 	101
attr interpolationmode  none
attr title  "the number of jobs created, last"
scalar DVESystem.source[23] 	created:last 	101
attr interpolationmode  none
attr title  "the number of jobs created, last"
scalar DVESystem.source[24] 	created:last 	101
attr interpolationmode  none
attr title  "the number of jobs created, last"
scalar DVESystem.source[25] 	created:last 	101
attr interpolationmode  none
attr title  "the number of jobs created, last"
scalar DVESystem.source[26] 	created:last 	101
attr interpolationmode  none
attr title  "the number of jobs created, last"
scalar DVESystem.source[27] 	created:last 	101
attr interpolationmode  none
attr title  "the number of jobs created, last"
scalar DVESystem.source[28] 	created:last 	101
attr interpolationmode  none
attr title  "the number of jobs created, last"
scalar DVESystem.source[29] 	created:last 	101
attr interpolationmode  none
attr title  "the number of jobs created, last"
scalar DVESystem.source[30] 	created:last 	101
attr interpolationmode  none
attr title  "the number of jobs created, last"
scalar DVESystem.source[31] 	created:last 	101
attr interpolationmode  none
attr title  "the number of jobs created, last"
scalar DVESystem.source[32] 	created:last 	101
attr interpolationmode  none
attr title  "the number of jobs created, last"
scalar DVESystem.source[33] 	created:last 	101
attr interpolationmode  none
attr title  "the number of jobs created, last"
scalar DVESystem.source[34] 	created:last 	101
attr interpolationmode  none
attr title  "the number of jobs created, last"
scalar DVESystem.source[35] 	created:last 	101
attr interpolationmode  none
attr title  "the number of jobs created, last"
scalar DVESystem.source[36] 	created:last 	101
attr interpolationmode  none
attr title  "the number of jobs created, last"
scalar DVESystem.source[37] 	created:last 	101
attr interpolationmode  none
attr title  "the number of jobs created, last"
scalar DVESystem.source[38] 	created:last 	101
attr interpolationmode  none
attr title  "the number of jobs created, last"
scalar DVESystem.source[39] 	created:last 	101
attr interpolationmode  none
attr title  "the number of jobs created, last"
scalar DVESystem.source[40] 	created:last 	101
attr interpolationmode  none
attr title  "the number of jobs created, last"
scalar DVESystem.source[41] 	created:last 	101
attr interpolationmode  none
attr title  "the number of jobs created, last"
scalar DVESystem.source[42] 	created:last 	101
attr interpolationmode  none
attr title  "the number of jobs created, last"
scalar DVESystem.source[43] 	created:last 	101
attr interpolationmode  none
attr title  "the number of jobs created, last"
scalar DVESystem.source[44] 	created:last 	101
attr interpolationmode  none
attr title  "the number of jobs created, last"
scalar DVESystem.source[45] 	created:last 	101
attr interpolationmode  none
attr title  "the number of jobs created, last"
scalar DVESystem.source[46] 	created:last 	101
attr interpolationmode  none
attr title  "the number of jobs created, last"
scalar DVESystem.source[47] 	created:last 	101
attr interpolationmode  none
attr title  "the number of jobs created, last"
scalar DVESystem.source[48] 	created:last 	101
attr interpolationmode  none
attr title  "the number of jobs created, last"
scalar DVESystem.source[49] 	created:last 	101
attr interpolationmode  none
attr title  "the number of jobs created, last"
scalar DVESystem.source[50] 	created:last 	101
attr interpolationmode  none
attr title  "the number of jobs created, last"
scalar DVESystem.source[51] 	created:last 	101
attr interpolationmode  none
attr title  "the number of jobs created, last"
scalar DVESystem.source[52] 	created:last 	101
attr interpolationmode  none
attr title  "the number of jobs created, last"
scalar DVESystem.source[53] 	created:last 	101
attr interpolationmode  none
attr title  "the number of jobs created, last"
scalar DVESystem.source[54] 	created:last 	101
attr interpolationmode  none
attr title  "the number of jobs created, last"
scalar DVESystem.source[55] 	created:last 	101
attr interpolationmode  none
attr title  "the number of jobs created, last"
scalar DVESystem.source[56] 	created:last 	101
attr interpolationmode  none
attr title  "the number of jobs created, last"
scalar DVESystem.source[57] 	created:last 	101
attr interpolationmode  none
attr title  "the number of jobs created, last"
scalar DVESystem.source[58] 	created:last 	101
attr interpolationmode  none
attr title  "the number of jobs created, last"
scalar DVESystem.source[59] 	created:last 	101
attr interpolationmode  none
attr title  "the number of jobs created, last"
scalar DVESystem.source[60] 	created:last 	101
attr interpolationmode  none
attr title  "the number of jobs created, last"
scalar DVESystem.source[61] 	created:last 	101
attr interpolationmode  none
attr title  "the number of jobs created, last"
scalar DVESystem.source[62] 	created:last 	101
attr interpolationmode  none
attr title  "the number of jobs created, last"
scalar DVESystem.source[63] 	created:last 	101
attr interpolationmode  none
attr title  "the number of jobs created, last"
scalar DVESystem.source[64] 	created:last 	101
attr interpolationmode  none
attr title  "the number of jobs created, last"
scalar DVESystem.source[65] 	created:last 	101
attr interpolationmode  none
attr title  "the number of jobs created, last"
scalar DVESystem.source[66] 	created:last 	101
attr interpolationmode  none
attr title  "the number of jobs created, last"
scalar DVESystem.source[67] 	created:last 	101
attr interpolationmode  none
attr title  "the number of jobs created, last"
scalar DVESystem.source[68] 	created:last 	101
attr interpolationmode  none
attr title  "the number of jobs created, last"
scalar DVESystem.source[69] 	created:last 	101
attr interpolationmode  none
attr title  "the number of jobs created, last"
scalar DVESystem.source[70] 	created:last 	101
attr interpolationmode  none
attr title  "the number of jobs created, last"
scalar DVESystem.source[71] 	created:last 	101
attr interpolationmode  none
attr title  "the number of jobs created, last"
scalar DVESystem.source[72] 	created:last 	101
attr interpolationmode  none
attr title  "the number of jobs created, last"
scalar DVESystem.source[73] 	created:last 	101
attr interpolationmode  none
attr title  "the number of jobs created, last"
scalar DVESystem.source[74] 	created:last 	101
attr interpolationmode  none
attr title  "the number of jobs created, last"
scalar DVESystem.source[75] 	created:last 	101
attr interpolationmode  none
attr title  "the number of jobs created, last"
scalar DVESystem.source[76] 	created:last 	101
attr interpolationmode  none
attr title  "the number of jobs created, last"
scalar DVESystem.source[77] 	created:last 	101
attr interpolationmode  none
attr title  "the number of jobs created, last"
scalar DVESystem.source[78] 	created:last 	101
attr interpolationmode  none
attr title  "the number of jobs created, last"
scalar DVESystem.source[79] 	created:last 	101
attr interpolationmode  none
attr title  "the number of jobs created, last"
scalar DVESystem.source[80] 	created:last 	101
attr interpolationmode  none
attr title  "the number of jobs created, last"
scalar DVESystem.source[81] 	created:last 	101
attr interpolationmode  none
attr title  "the number of jobs created, last"
scalar DVESystem.source[82] 	created:last 	101
attr interpolationmode  none
attr title  "the number of jobs created, last"
scalar DVESystem.source[83] 	created:last 	101
attr interpolationmode  none
attr title  "the number of jobs created, last"
scalar DVESystem.source[84] 	created:last 	101
attr interpolationmode  none
attr title  "the number of jobs created, last"
scalar DVESystem.source[85] 	created:last 	101
attr interpolationmode  none
attr title  "the number of jobs created, last"
scalar DVESystem.source[86] 	created:last 	101
attr interpolationmode  none
attr title  "the number of jobs created, last"
scalar DVESystem.source[87] 	created:last 	101
attr interpolationmode  none
attr title  "the number of jobs created, last"
scalar DVESystem.source[88] 	created:last 	101
attr interpolationmode  none
attr title  "the number of jobs created, last"
scalar DVESystem.source[89] 	created:last 	101
attr interpolationmode  none
attr title  "the number of jobs created, last"
scalar DVESystem.source[90] 	created:last 	101
attr interpolationmode  none
attr title  "the number of jobs created, last"
scalar DVESystem.source[91] 	created:last 	101
attr interpolationmode  none
attr title  "the number of jobs created, last"
scalar DVESystem.source[92] 	created:last 	101
attr interpolationmode  none
attr title  "the number of jobs created, last"
scalar DVESystem.source[93] 	created:last 	101
attr interpolationmode  none
attr title  "the number of jobs created, last"
scalar DVESystem.source[94] 	created:last 	101
attr interpolationmode  none
attr title  "the number of jobs created, last"
scalar DVESystem.source[95] 	created:last 	101
attr interpolationmode  none
attr title  "the number of jobs created, last"
scalar DVESystem.source[96] 	created:last 	101
attr interpolationmode  none
attr title  "the number of jobs created, last"
scalar DVESystem.source[97] 	created:last 	101
attr interpolationmode  none
attr title  "the number of jobs created, last"
scalar DVESystem.source[98] 	created:last 	101
attr interpolationmode  none
attr title  "the number of jobs created, last"
scalar DVESystem.source[99] 	created:last 	101
attr interpolationmode  none
attr title  "the number of jobs created, last"
scalar DVESystem.source[100] 	created:last 	101
attr interpolationmode  none
attr title  "the number of jobs created, last"
scalar DVESystem.source[101] 	created:last 	101
attr interpolationmode  none
attr title  "the number of jobs created, last"
scalar DVESystem.source[102] 	created:last 	101
attr interpolationmode  none
attr title  "the number of jobs created, last"
scalar DVESystem.source[103] 	created:last 	101
attr interpolationmode  none
attr title  "the number of jobs created, last"
scalar DVESystem.source[104] 	created:last 	101
attr interpolationmode  none
attr title  "the number of jobs created, last"
scalar DVESystem.source[105] 	created:last 	101
attr interpolationmode  none
attr title  "the number of jobs created, last"
scalar DVESystem.source[106] 	created:last 	101
attr interpolationmode  none
attr title  "the number of jobs created, last"
scalar DVESystem.source[107] 	created:last 	101
attr interpolationmode  none
attr title  "the number of jobs created, last"
scalar DVESystem.source[108] 	created:last 	101
attr interpolationmode  none
attr title  "the number of jobs created, last"
scalar DVESystem.source[109] 	created:last 	101
attr interpolationmode  none
attr title  "the number of jobs created, last"
scalar DVESystem.source[110] 	created:last 	101
attr interpolationmode  none
attr title  "the number of jobs created, last"
scalar DVESystem.source[111] 	created:last 	101
attr interpolationmode  none
attr title  "the number of jobs created, last"
scalar DVESystem.source[112] 	created:last 	101
attr interpolationmode  none
attr title  "the number of jobs created, last"
scalar DVESystem.source[113] 	created:last 	101
attr interpolationmode  none
attr title  "the number of jobs created, last"
scalar DVESystem.source[114] 	created:last 	101
attr interpolationmode  none
attr title  "the number of jobs created, last"
scalar DVESystem.source[115] 	created:last 	101
attr interpolationmode  none
attr title  "the number of jobs created, last"
scalar DVESystem.source[116] 	created:last 	101
attr interpolationmode  none
attr title  "the number of jobs created, last"
scalar DVESystem.source[117] 	created:last 	101
attr interpolationmode  none
attr title  "the number of jobs created, last"
scalar DVESystem.source[118] 	created:last 	101
attr interpolationmode  none
attr title  "the number of jobs created, last"
scalar DVESystem.source[119] 	created:last 	101
attr interpolationmode  none
attr title  "the number of jobs created, last"
scalar DVESystem.source[120] 	created:last 	101
attr interpolationmode  none
attr title  "the number of jobs created, last"
scalar DVESystem.source[121] 	created:last 	101
attr interpolationmode  none
attr title  "the number of jobs created, last"
scalar DVESystem.source[122] 	created:last 	101
attr interpolationmode  none
attr title  "the number of jobs created, last"
scalar DVESystem.source[123] 	created:last 	101
attr interpolationmode  none
attr title  "the number of jobs created, last"
scalar DVESystem.source[124] 	created:last 	101
attr interpolationmode  none
attr title  "the number of jobs created, last"
scalar DVESystem.source[125] 	created:last 	101
attr interpolationmode  none
attr title  "the number of jobs created, last"
scalar DVESystem.source[126] 	created:last 	101
attr interpolationmode  none
attr title  "the number of jobs created, last"
scalar DVESystem.source[127] 	created:last 	101
attr interpolationmode  none
attr title  "the number of jobs created, last"
scalar DVESystem.source[128] 	created:last 	101
attr interpolationmode  none
attr title  "the number of jobs created, last"
scalar DVESystem.source[129] 	created:last 	101
attr interpolationmode  none
attr title  "the number of jobs created, last"
scalar DVESystem.source[130] 	created:last 	101
attr interpolationmode  none
attr title  "the number of jobs created, last"
scalar DVESystem.source[131] 	created:last 	101
attr interpolationmode  none
attr title  "the number of jobs created, last"
scalar DVESystem.source[132] 	created:last 	101
attr interpolationmode  none
attr title  "the number of jobs created, last"
scalar DVESystem.source[133] 	created:last 	101
attr interpolationmode  none
attr title  "the number of jobs created, last"
scalar DVESystem.source[134] 	created:last 	101
attr interpolationmode  none
attr title  "the number of jobs created, last"
scalar DVESystem.source[135] 	created:last 	101
attr interpolationmode  none
attr title  "the number of jobs created, last"
scalar DVESystem.source[136] 	created:last 	101
attr interpolationmode  none
attr title  "the number of jobs created, last"
scalar DVESystem.source[137] 	created:last 	101
attr interpolationmode  none
attr title  "the number of jobs created, last"
scalar DVESystem.source[138] 	created:last 	101
attr interpolationmode  none
attr title  "the number of jobs created, last"
scalar DVESystem.source[139] 	created:last 	101
attr interpolationmode  none
attr title  "the number of jobs created, last"
scalar DVESystem.source[140] 	created:last 	101
attr interpolationmode  none
attr title  "the number of jobs created, last"
scalar DVESystem.source[141] 	created:last 	101
attr interpolationmode  none
attr title  "the number of jobs created, last"
scalar DVESystem.source[142] 	created:last 	101
attr interpolationmode  none
attr title  "the number of jobs created, last"
scalar DVESystem.source[143] 	created:last 	101
attr interpolationmode  none
attr title  "the number of jobs created, last"
scalar DVESystem.source[144] 	created:last 	101
attr interpolationmode  none
attr title  "the number of jobs created, last"
scalar DVESystem.source[145] 	created:last 	101
attr interpolationmode  none
attr title  "the number of jobs created, last"
scalar DVESystem.source[146] 	created:last 	101
attr interpolationmode  none
attr title  "the number of jobs created, last"
scalar DVESystem.source[147] 	created:last 	101
attr interpolationmode  none
attr title  "the number of jobs created, last"
scalar DVESystem.source[148] 	created:last 	101
attr interpolationmode  none
attr title  "the number of jobs created, last"
scalar DVESystem.source[149] 	created:last 	101
attr interpolationmode  none
attr title  "the number of jobs created, last"
scalar DVESystem.source[150] 	created:last 	101
attr interpolationmode  none
attr title  "the number of jobs created, last"
scalar DVESystem.source[151] 	created:last 	101
attr interpolationmode  none
attr title  "the number of jobs created, last"
scalar DVESystem.source[152] 	created:last 	101
attr interpolationmode  none
attr title  "the number of jobs created, last"
scalar DVESystem.source[153] 	created:last 	101
attr interpolationmode  none
attr title  "the number of jobs created, last"
scalar DVESystem.source[154] 	created:last 	101
attr interpolationmode  none
attr title  "the number of jobs created, last"
scalar DVESystem.source[155] 	created:last 	101
attr interpolationmode  none
attr title  "the number of jobs created, last"
scalar DVESystem.source[156] 	created:last 	101
attr interpolationmode  none
attr title  "the number of jobs created, last"
scalar DVESystem.source[157] 	created:last 	101
attr interpolationmode  none
attr title  "the number of jobs created, last"
scalar DVESystem.source[158] 	created:last 	101
attr interpolationmode  none
attr title  "the number of jobs created, last"
scalar DVESystem.source[159] 	created:last 	101
attr interpolationmode  none
attr title  "the number of jobs created, last"
scalar DVESystem.source[160] 	created:last 	101
attr interpolationmode  none
attr title  "the number of jobs created, last"
scalar DVESystem.source[161] 	created:last 	101
attr interpolationmode  none
attr title  "the number of jobs created, last"
scalar DVESystem.source[162] 	created:last 	101
attr interpolationmode  none
attr title  "the number of jobs created, last"
scalar DVESystem.source[163] 	created:last 	101
attr interpolationmode  none
attr title  "the number of jobs created, last"
scalar DVESystem.source[164] 	created:last 	101
attr interpolationmode  none
attr title  "the number of jobs created, last"
scalar DVESystem.source[165] 	created:last 	101
attr interpolationmode  none
attr title  "the number of jobs created, last"
scalar DVESystem.source[166] 	created:last 	101
attr interpolationmode  none
attr title  "the number of jobs created, last"
scalar DVESystem.source[167] 	created:last 	101
attr interpolationmode  none
attr title  "the number of jobs created, last"
scalar DVESystem.source[168] 	created:last 	101
attr interpolationmode  none
attr title  "the number of jobs created, last"
scalar DVESystem.source[169] 	created:last 	101
attr interpolationmode  none
attr title  "the number of jobs created, last"
scalar DVESystem.source[170] 	created:last 	101
attr interpolationmode  none
attr title  "the number of jobs created, last"
scalar DVESystem.source[171] 	created:last 	101
attr interpolationmode  none
attr title  "the number of jobs created, last"
scalar DVESystem.source[172] 	created:last 	101
attr interpolationmode  none
attr title  "the number of jobs created, last"
scalar DVESystem.source[173] 	created:last 	101
attr interpolationmode  none
attr title  "the number of jobs created, last"
scalar DVESystem.source[174] 	created:last 	101
attr interpolationmode  none
attr title  "the number of jobs created, last"
scalar DVESystem.source[175] 	created:last 	101
attr interpolationmode  none
attr title  "the number of jobs created, last"
scalar DVESystem.source[176] 	created:last 	101
attr interpolationmode  none
attr title  "the number of jobs created, last"
scalar DVESystem.source[177] 	created:last 	101
attr interpolationmode  none
attr title  "the number of jobs created, last"
scalar DVESystem.source[178] 	created:last 	101
attr interpolationmode  none
attr title  "the number of jobs created, last"
scalar DVESystem.source[179] 	created:last 	101
attr interpolationmode  none
attr title  "the number of jobs created, last"
statistic DVESystem.client[0] 	clientPresenceFactor:stats
field count 565
field mean 2.1451327433628
field stddev 1.2814131681566
field sum 1212
field sqrsum 3526
field min 0
field max 6
attr interpolationmode  none
attr source  presenceFactor
attr title  "Presence Factor, stats"
scalar DVESystem.client[0] 	"clientPresenceFactor: -count" 	-565
attr interpolationmode  none
attr source  presenceFactor
attr title  "Presence Factor,  -count"
statistic DVESystem.client[0] 	clientMoves:stats
field count 84
field mean 42.5
field stddev 24.392621835301
field sum 3570
field sqrsum 201110
field min 1
field max 84
attr interpolationmode  none
attr source  move
attr title  "Moves, stats"
statistic DVESystem.client[0] 	clientNoMoves:stats
field count 16
field mean 8.5
field stddev 4.7609522856952
field sum 136
field sqrsum 1496
field min 1
field max 16
attr interpolationmode  none
attr source  noMove
attr title  "No moves, stats"
statistic DVESystem.client[0] 	clientMovesLost:stats
field count 0
field mean 0
field stddev -1.#IND
field sum 0
field sqrsum 0
field min 0
field max 0
attr interpolationmode  none
attr source  moveLost
attr title  "Moves lost, stats"
statistic DVESystem.client[0] 	dveResponse:stats
field count 84
field mean 0.48843135678014
field stddev 0.2079872323257
field sum 41.028233969532
field sqrsum 23.629947155303
field min 0.092965055416
field max 1.145046508305
attr interpolationmode  none
attr source  sysResponse
attr title  "DVE response time, stats"
statistic DVESystem.client[1] 	clientPresenceFactor:stats
field count 573
field mean 2.2198952879581
field stddev 1.302427261782
field sum 1272
field sqrsum 3794
field min 0
field max 6
attr interpolationmode  none
attr source  presenceFactor
attr title  "Presence Factor, stats"
scalar DVESystem.client[1] 	"clientPresenceFactor: -count" 	-573
attr interpolationmode  none
attr source  presenceFactor
attr title  "Presence Factor,  -count"
statistic DVESystem.client[1] 	clientMoves:stats
field count 87
field mean 44
field stddev 25.25866188063
field sum 3828
field sqrsum 223300
field min 1
field max 87
attr interpolationmode  none
attr source  move
attr title  "Moves, stats"
statistic DVESystem.client[1] 	clientNoMoves:stats
field count 13
field mean 7
field stddev 3.8944404818493
field sum 91
field sqrsum 819
field min 1
field max 13
attr interpolationmode  none
attr source  noMove
attr title  "No moves, stats"
statistic DVESystem.client[1] 	clientMovesLost:stats
field count 0
field mean 0
field stddev -1.#IND
field sum 0
field sqrsum 0
field min 0
field max 0
attr interpolationmode  none
attr source  moveLost
attr title  "Moves lost, stats"
statistic DVESystem.client[1] 	dveResponse:stats
field count 87
field mean 0.51259060114963
field stddev 0.19201988776762
field sum 44.595382300018
field sqrsum 26.030134629317
field min 0.185279468986
field max 1.142857228874
attr interpolationmode  none
attr source  sysResponse
attr title  "DVE response time, stats"
statistic DVESystem.client[2] 	clientPresenceFactor:stats
field count 574
field mean 2.2578397212544
field stddev 1.5084634538887
field sum 1296
field sqrsum 4230
field min 0
field max 8
attr interpolationmode  none
attr source  presenceFactor
attr title  "Presence Factor, stats"
scalar DVESystem.client[2] 	"clientPresenceFactor: -count" 	-574
attr interpolationmode  none
attr source  presenceFactor
attr title  "Presence Factor,  -count"
statistic DVESystem.client[2] 	clientMoves:stats
field count 91
field mean 46
field stddev 26.413380447543
field sum 4186
field sqrsum 255346
field min 1
field max 91
attr interpolationmode  none
attr source  move
attr title  "Moves, stats"
statistic DVESystem.client[2] 	clientNoMoves:stats
field count 9
field mean 5
field stddev 2.7386127875258
field sum 45
field sqrsum 285
field min 1
field max 9
attr interpolationmode  none
attr source  noMove
attr title  "No moves, stats"
statistic DVESystem.client[2] 	clientMovesLost:stats
field count 0
field mean 0
field stddev -1.#IND
field sum 0
field sqrsum 0
field min 0
field max 0
attr interpolationmode  none
attr source  moveLost
attr title  "Moves lost, stats"
statistic DVESystem.client[2] 	dveResponse:stats
field count 91
field mean 0.54857154975551
field stddev 0.21029456584033
field sum 49.920011027751
field sqrsum 31.364840211283
field min 0.139667617557
field max 1.112561443481
attr interpolationmode  none
attr source  sysResponse
attr title  "DVE response time, stats"
statistic DVESystem.client[3] 	clientPresenceFactor:stats
field count 598
field mean 2.4197324414716
field stddev 1.6460943864076
field sum 1447
field sqrsum 5119
field min 0
field max 9
attr interpolationmode  none
attr source  presenceFactor
attr title  "Presence Factor, stats"
scalar DVESystem.client[3] 	"clientPresenceFactor: -count" 	-598
attr interpolationmode  none
attr source  presenceFactor
attr title  "Presence Factor,  -count"
statistic DVESystem.client[3] 	clientMoves:stats
field count 92
field mean 46.5
field stddev 26.702059845637
field sum 4278
field sqrsum 263810
field min 1
field max 92
attr interpolationmode  none
attr source  move
attr title  "Moves, stats"
statistic DVESystem.client[3] 	clientNoMoves:stats
field count 8
field mean 4.5
field stddev 2.4494897427832
field sum 36
field sqrsum 204
field min 1
field max 8
attr interpolationmode  none
attr source  noMove
attr title  "No moves, stats"
statistic DVESystem.client[3] 	clientMovesLost:stats
field count 0
field mean 0
field stddev -1.#IND
field sum 0
field sqrsum 0
field min 0
field max 0
attr interpolationmode  none
attr source  moveLost
attr title  "Moves lost, stats"
statistic DVESystem.client[3] 	dveResponse:stats
field count 92
field mean 0.52528620946192
field stddev 0.24217479622423
field sum 48.326331270497
field sqrsum 30.722180875569
field min 0.127224122706
field max 1.206404532199
attr interpolationmode  none
attr source  sysResponse
attr title  "DVE response time, stats"
statistic DVESystem.client[4] 	clientPresenceFactor:stats
field count 584
field mean 2.5496575342466
field stddev 1.4096944010925
field sum 1489
field sqrsum 4955
field min 0
field max 6
attr interpolationmode  none
attr source  presenceFactor
attr title  "Presence Factor, stats"
scalar DVESystem.client[4] 	"clientPresenceFactor: -count" 	-584
attr interpolationmode  none
attr source  presenceFactor
attr title  "Presence Factor,  -count"
statistic DVESystem.client[4] 	clientMoves:stats
field count 89
field mean 45
field stddev 25.836021365528
field sum 4005
field sqrsum 238965
field min 1
field max 89
attr interpolationmode  none
attr source  move
attr title  "Moves, stats"
statistic DVESystem.client[4] 	clientNoMoves:stats
field count 11
field mean 6
field stddev 3.3166247903554
field sum 66
field sqrsum 506
field min 1
field max 11
attr interpolationmode  none
attr source  noMove
attr title  "No moves, stats"
statistic DVESystem.client[4] 	clientMovesLost:stats
field count 0
field mean 0
field stddev -1.#IND
field sum 0
field sqrsum 0
field min 0
field max 0
attr interpolationmode  none
attr source  moveLost
attr title  "Moves lost, stats"
statistic DVESystem.client[4] 	dveResponse:stats
field count 89
field mean 0.55071162755589
field stddev 0.21440185118692
field sum 49.013334852474
field sqrsum 31.037410942277
field min 0.050968350576
field max 1.072675951471
attr interpolationmode  none
attr source  sysResponse
attr title  "DVE response time, stats"
statistic DVESystem.client[5] 	clientPresenceFactor:stats
field count 579
field mean 2.3989637305699
field stddev 1.5230861143846
field sum 1389
field sqrsum 4673
field min 0
field max 8
attr interpolationmode  none
attr source  presenceFactor
attr title  "Presence Factor, stats"
scalar DVESystem.client[5] 	"clientPresenceFactor: -count" 	-579
attr interpolationmode  none
attr source  presenceFactor
attr title  "Presence Factor,  -count"
statistic DVESystem.client[5] 	clientMoves:stats
field count 92
field mean 46.5
field stddev 26.702059845637
field sum 4278
field sqrsum 263810
field min 1
field max 92
attr interpolationmode  none
attr source  move
attr title  "Moves, stats"
statistic DVESystem.client[5] 	clientNoMoves:stats
field count 8
field mean 4.5
field stddev 2.4494897427832
field sum 36
field sqrsum 204
field min 1
field max 8
attr interpolationmode  none
attr source  noMove
attr title  "No moves, stats"
statistic DVESystem.client[5] 	clientMovesLost:stats
field count 0
field mean 0
field stddev -1.#IND
field sum 0
field sqrsum 0
field min 0
field max 0
attr interpolationmode  none
attr source  moveLost
attr title  "Moves lost, stats"
statistic DVESystem.client[5] 	dveResponse:stats
field count 92
field mean 0.53135936901687
field stddev 0.21520127668871
field sum 48.885061949552
field sqrsum 30.189890315314
field min 0.01675698742
field max 1.119859778627
attr interpolationmode  none
attr source  sysResponse
attr title  "DVE response time, stats"
statistic DVESystem.client[6] 	clientPresenceFactor:stats
field count 560
field mean 2.3428571428571
field stddev 1.6534083778643
field sum 1312
field sqrsum 4602
field min 0
field max 7
attr interpolationmode  none
attr source  presenceFactor
attr title  "Presence Factor, stats"
scalar DVESystem.client[6] 	"clientPresenceFactor: -count" 	-560
attr interpolationmode  none
attr source  presenceFactor
attr title  "Presence Factor,  -count"
statistic DVESystem.client[6] 	clientMoves:stats
field count 80
field mean 40.5
field stddev 23.237900077245
field sum 3240
field sqrsum 173880
field min 1
field max 80
attr interpolationmode  none
attr source  move
attr title  "Moves, stats"
statistic DVESystem.client[6] 	clientNoMoves:stats
field count 20
field mean 10.5
field stddev 5.9160797830996
field sum 210
field sqrsum 2870
field min 1
field max 20
attr interpolationmode  none
attr source  noMove
attr title  "No moves, stats"
statistic DVESystem.client[6] 	clientMovesLost:stats
field count 0
field mean 0
field stddev -1.#IND
field sum 0
field sqrsum 0
field min 0
field max 0
attr interpolationmode  none
attr source  moveLost
attr title  "Moves lost, stats"
statistic DVESystem.client[6] 	dveResponse:stats
field count 80
field mean 0.53054490850991
field stddev 0.22357603019341
field sum 42.443592680793
field sqrsum 26.46714505655
field min 0.127497441372
field max 1.291595683001
attr interpolationmode  none
attr source  sysResponse
attr title  "DVE response time, stats"
statistic DVESystem.client[7] 	clientPresenceFactor:stats
field count 562
field mean 2.585409252669
field stddev 1.4517801205721
field sum 1453
field sqrsum 4939
field min 0
field max 8
attr interpolationmode  none
attr source  presenceFactor
attr title  "Presence Factor, stats"
scalar DVESystem.client[7] 	"clientPresenceFactor: -count" 	-562
attr interpolationmode  none
attr source  presenceFactor
attr title  "Presence Factor,  -count"
statistic DVESystem.client[7] 	clientMoves:stats
field count 88
field mean 44.5
field stddev 25.547341675146
field sum 3916
field sqrsum 231044
field min 1
field max 88
attr interpolationmode  none
attr source  move
attr title  "Moves, stats"
statistic DVESystem.client[7] 	clientNoMoves:stats
field count 12
field mean 6.5
field stddev 3.605551275464
field sum 78
field sqrsum 650
field min 1
field max 12
attr interpolationmode  none
attr source  noMove
attr title  "No moves, stats"
statistic DVESystem.client[7] 	clientMovesLost:stats
field count 0
field mean 0
field stddev -1.#IND
field sum 0
field sqrsum 0
field min 0
field max 0
attr interpolationmode  none
attr source  moveLost
attr title  "Moves lost, stats"
statistic DVESystem.client[7] 	dveResponse:stats
field count 88
field mean 0.51039949921145
field stddev 0.20883727693495
field sum 44.915155930608
field sqrsum 26.719004810658
field min 0.038253153865
field max 1.137782252958
attr interpolationmode  none
attr source  sysResponse
attr title  "DVE response time, stats"
statistic DVESystem.client[8] 	clientPresenceFactor:stats
field count 578
field mean 2.5
field stddev 1.4022141441541
field sum 1445
field sqrsum 4747
field min 0
field max 7
attr interpolationmode  none
attr source  presenceFactor
attr title  "Presence Factor, stats"
scalar DVESystem.client[8] 	"clientPresenceFactor: -count" 	-578
attr interpolationmode  none
attr source  presenceFactor
attr title  "Presence Factor,  -count"
statistic DVESystem.client[8] 	clientMoves:stats
field count 94
field mean 47.5
field stddev 27.279418371121
field sum 4465
field sqrsum 281295
field min 1
field max 94
attr interpolationmode  none
attr source  move
attr title  "Moves, stats"
statistic DVESystem.client[8] 	clientNoMoves:stats
field count 6
field mean 3.5
field stddev 1.870828693387
field sum 21
field sqrsum 91
field min 1
field max 6
attr interpolationmode  none
attr source  noMove
attr title  "No moves, stats"
statistic DVESystem.client[8] 	clientMovesLost:stats
field count 0
field mean 0
field stddev -1.#IND
field sum 0
field sqrsum 0
field min 0
field max 0
attr interpolationmode  none
attr source  moveLost
attr title  "Moves lost, stats"
statistic DVESystem.client[8] 	dveResponse:stats
field count 94
field mean 0.53012386729317
field stddev 0.20532465954776
field sum 49.831643525558
field sqrsum 30.337657650455
field min 0.159630508972
field max 1.197646584033
attr interpolationmode  none
attr source  sysResponse
attr title  "DVE response time, stats"
statistic DVESystem.client[9] 	clientPresenceFactor:stats
field count 604
field mean 2.9056291390728
field stddev 1.5332797205245
field sum 1755
field sqrsum 6517
field min 0
field max 8
attr interpolationmode  none
attr source  presenceFactor
attr title  "Presence Factor, stats"
scalar DVESystem.client[9] 	"clientPresenceFactor: -count" 	-604
attr interpolationmode  none
attr source  presenceFactor
attr title  "Presence Factor,  -count"
statistic DVESystem.client[9] 	clientMoves:stats
field count 82
field mean 41.5
field stddev 23.815261213488
field sum 3403
field sqrsum 187165
field min 1
field max 82
attr interpolationmode  none
attr source  move
attr title  "Moves, stats"
statistic DVESystem.client[9] 	clientNoMoves:stats
field count 18
field mean 9.5
field stddev 5.3385391260157
field sum 171
field sqrsum 2109
field min 1
field max 18
attr interpolationmode  none
attr source  noMove
attr title  "No moves, stats"
statistic DVESystem.client[9] 	clientMovesLost:stats
field count 0
field mean 0
field stddev -1.#IND
field sum 0
field sqrsum 0
field min 0
field max 0
attr interpolationmode  none
attr source  moveLost
attr title  "Moves lost, stats"
statistic DVESystem.client[9] 	dveResponse:stats
field count 82
field mean 0.47183846360917
field stddev 0.18603818111146
field sum 38.690754015952
field sqrsum 21.059212522099
field min 0.170970769702
field max 0.997159934042
attr interpolationmode  none
attr source  sysResponse
attr title  "DVE response time, stats"
statistic DVESystem.client[10] 	clientPresenceFactor:stats
field count 530
field mean 2.2433962264151
field stddev 1.3910338641916
field sum 1189
field sqrsum 3691
field min 0
field max 8
attr interpolationmode  none
attr source  presenceFactor
attr title  "Presence Factor, stats"
scalar DVESystem.client[10] 	"clientPresenceFactor: -count" 	-530
attr interpolationmode  none
attr source  presenceFactor
attr title  "Presence Factor,  -count"
statistic DVESystem.client[10] 	clientMoves:stats
field count 83
field mean 42
field stddev 24.103941586388
field sum 3486
field sqrsum 194054
field min 1
field max 83
attr interpolationmode  none
attr source  move
attr title  "Moves, stats"
statistic DVESystem.client[10] 	clientNoMoves:stats
field count 17
field mean 9
field stddev 5.049752469181
field sum 153
field sqrsum 1785
field min 1
field max 17
attr interpolationmode  none
attr source  noMove
attr title  "No moves, stats"
statistic DVESystem.client[10] 	clientMovesLost:stats
field count 0
field mean 0
field stddev -1.#IND
field sum 0
field sqrsum 0
field min 0
field max 0
attr interpolationmode  none
attr source  moveLost
attr title  "Moves lost, stats"
statistic DVESystem.client[10] 	dveResponse:stats
field count 83
field mean 0.51837388743342
field stddev 0.21198517309368
field sum 43.025032656974
field sqrsum 25.987945951493
field min 0.163361422174
field max 1.419192489334
attr interpolationmode  none
attr source  sysResponse
attr title  "DVE response time, stats"
statistic DVESystem.client[11] 	clientPresenceFactor:stats
field count 554
field mean 2.5812274368231
field stddev 1.4575641483487
field sum 1430
field sqrsum 4866
field min 0
field max 7
attr interpolationmode  none
attr source  presenceFactor
attr title  "Presence Factor, stats"
scalar DVESystem.client[11] 	"clientPresenceFactor: -count" 	-554
attr interpolationmode  none
attr source  presenceFactor
attr title  "Presence Factor,  -count"
statistic DVESystem.client[11] 	clientMoves:stats
field count 84
field mean 42.5
field stddev 24.392621835301
field sum 3570
field sqrsum 201110
field min 1
field max 84
attr interpolationmode  none
attr source  move
attr title  "Moves, stats"
statistic DVESystem.client[11] 	clientNoMoves:stats
field count 16
field mean 8.5
field stddev 4.7609522856952
field sum 136
field sqrsum 1496
field min 1
field max 16
attr interpolationmode  none
attr source  noMove
attr title  "No moves, stats"
statistic DVESystem.client[11] 	clientMovesLost:stats
field count 0
field mean 0
field stddev -1.#IND
field sum 0
field sqrsum 0
field min 0
field max 0
attr interpolationmode  none
attr source  moveLost
attr title  "Moves lost, stats"
statistic DVESystem.client[11] 	dveResponse:stats
field count 84
field mean 0.51757875605639
field stddev 0.21082981679494
field sum 43.476615508737
field sqrsum 26.191857139487
field min 0.16202621634
field max 1.220173773415
attr interpolationmode  none
attr source  sysResponse
attr title  "DVE response time, stats"
statistic DVESystem.client[12] 	clientPresenceFactor:stats
field count 554
field mean 2.4097472924188
field stddev 1.429467309717
field sum 1335
field sqrsum 4347
field min 0
field max 7
attr interpolationmode  none
attr source  presenceFactor
attr title  "Presence Factor, stats"
scalar DVESystem.client[12] 	"clientPresenceFactor: -count" 	-554
attr interpolationmode  none
attr source  presenceFactor
attr title  "Presence Factor,  -count"
statistic DVESystem.client[12] 	clientMoves:stats
field count 89
field mean 45
field stddev 25.836021365528
field sum 4005
field sqrsum 238965
field min 1
field max 89
attr interpolationmode  none
attr source  move
attr title  "Moves, stats"
statistic DVESystem.client[12] 	clientNoMoves:stats
field count 11
field mean 6
field stddev 3.3166247903554
field sum 66
field sqrsum 506
field min 1
field max 11
attr interpolationmode  none
attr source  noMove
attr title  "No moves, stats"
statistic DVESystem.client[12] 	clientMovesLost:stats
field count 0
field mean 0
field stddev -1.#IND
field sum 0
field sqrsum 0
field min 0
field max 0
attr interpolationmode  none
attr source  moveLost
attr title  "Moves lost, stats"
statistic DVESystem.client[12] 	dveResponse:stats
field count 89
field mean 0.47888620146991
field stddev 0.23033049830226
field sum 42.620871930822
field sqrsum 25.079135645725
field min 0.09628052218
field max 1.234388961483
attr interpolationmode  none
attr source  sysResponse
attr title  "DVE response time, stats"
statistic DVESystem.client[13] 	clientPresenceFactor:stats
field count 575
field mean 2.24
field stddev 1.482111686839
field sum 1288
field sqrsum 4146
field min 0
field max 8
attr interpolationmode  none
attr source  presenceFactor
attr title  "Presence Factor, stats"
scalar DVESystem.client[13] 	"clientPresenceFactor: -count" 	-575
attr interpolationmode  none
attr source  presenceFactor
attr title  "Presence Factor,  -count"
statistic DVESystem.client[13] 	clientMoves:stats
field count 86
field mean 43.5
field stddev 24.969981978368
field sum 3741
field sqrsum 215731
field min 1
field max 86
attr interpolationmode  none
attr source  move
attr title  "Moves, stats"
statistic DVESystem.client[13] 	clientNoMoves:stats
field count 14
field mean 7.5
field stddev 4.1833001326704
field sum 105
field sqrsum 1015
field min 1
field max 14
attr interpolationmode  none
attr source  noMove
attr title  "No moves, stats"
statistic DVESystem.client[13] 	clientMovesLost:stats
field count 0
field mean 0
field stddev -1.#IND
field sum 0
field sqrsum 0
field min 0
field max 0
attr interpolationmode  none
attr source  moveLost
attr title  "Moves lost, stats"
statistic DVESystem.client[13] 	dveResponse:stats
field count 86
field mean 0.4898169976928
field stddev 0.21366291782495
field sum 42.124261801581
field sqrsum 24.513586054221
field min 0.151182115314
field max 1.122340419733
attr interpolationmode  none
attr source  sysResponse
attr title  "DVE response time, stats"
statistic DVESystem.client[14] 	clientPresenceFactor:stats
field count 637
field mean 2.7394034536892
field stddev 1.5279065369686
field sum 1745
field sqrsum 6265
field min 0
field max 8
attr interpolationmode  none
attr source  presenceFactor
attr title  "Presence Factor, stats"
scalar DVESystem.client[14] 	"clientPresenceFactor: -count" 	-637
attr interpolationmode  none
attr source  presenceFactor
attr title  "Presence Factor,  -count"
statistic DVESystem.client[14] 	clientMoves:stats
field count 90
field mean 45.5
field stddev 26.124700955226
field sum 4095
field sqrsum 247065
field min 1
field max 90
attr interpolationmode  none
attr source  move
attr title  "Moves, stats"
statistic DVESystem.client[14] 	clientNoMoves:stats
field count 10
field mean 5.5
field stddev 3.0276503540975
field sum 55
field sqrsum 385
field min 1
field max 10
attr interpolationmode  none
attr source  noMove
attr title  "No moves, stats"
statistic DVESystem.client[14] 	clientMovesLost:stats
field count 0
field mean 0
field stddev -1.#IND
field sum 0
field sqrsum 0
field min 0
field max 0
attr interpolationmode  none
attr source  moveLost
attr title  "Moves lost, stats"
statistic DVESystem.client[14] 	dveResponse:stats
field count 90
field mean 0.50551300196418
field stddev 0.21959151528687
field sum 45.496170176776
field sqrsum 27.290524153088
field min 0.120395237389
field max 1.165852203922
attr interpolationmode  none
attr source  sysResponse
attr title  "DVE response time, stats"
statistic DVESystem.client[15] 	clientPresenceFactor:stats
field count 588
field mean 2.4149659863946
field stddev 1.5225439905863
field sum 1420
field sqrsum 4790
field min 0
field max 8
attr interpolationmode  none
attr source  presenceFactor
attr title  "Presence Factor, stats"
scalar DVESystem.client[15] 	"clientPresenceFactor: -count" 	-588
attr interpolationmode  none
attr source  presenceFactor
attr title  "Presence Factor,  -count"
statistic DVESystem.client[15] 	clientMoves:stats
field count 90
field mean 45.5
field stddev 26.124700955226
field sum 4095
field sqrsum 247065
field min 1
field max 90
attr interpolationmode  none
attr source  move
attr title  "Moves, stats"
statistic DVESystem.client[15] 	clientNoMoves:stats
field count 10
field mean 5.5
field stddev 3.0276503540975
field sum 55
field sqrsum 385
field min 1
field max 10
attr interpolationmode  none
attr source  noMove
attr title  "No moves, stats"
statistic DVESystem.client[15] 	clientMovesLost:stats
field count 0
field mean 0
field stddev -1.#IND
field sum 0
field sqrsum 0
field min 0
field max 0
attr interpolationmode  none
attr source  moveLost
attr title  "Moves lost, stats"
statistic DVESystem.client[15] 	dveResponse:stats
field count 90
field mean 0.48750455724096
field stddev 0.2154832931141
field sum 43.875410151686
field sqrsum 25.522003815168
field min 0.077771612168
field max 1.269734433174
attr interpolationmode  none
attr source  sysResponse
attr title  "DVE response time, stats"
statistic DVESystem.client[16] 	clientPresenceFactor:stats
field count 580
field mean 2.8189655172414
field stddev 1.5258234161444
field sum 1635
field sqrsum 5957
field min 0
field max 7
attr interpolationmode  none
attr source  presenceFactor
attr title  "Presence Factor, stats"
scalar DVESystem.client[16] 	"clientPresenceFactor: -count" 	-580
attr interpolationmode  none
attr source  presenceFactor
attr title  "Presence Factor,  -count"
statistic DVESystem.client[16] 	clientMoves:stats
field count 85
field mean 43
field stddev 24.681301964578
field sum 3655
field sqrsum 208335
field min 1
field max 85
attr interpolationmode  none
attr source  move
attr title  "Moves, stats"
statistic DVESystem.client[16] 	clientNoMoves:stats
field count 15
field mean 8
field stddev 4.4721359549996
field sum 120
field sqrsum 1240
field min 1
field max 15
attr interpolationmode  none
attr source  noMove
attr title  "No moves, stats"
statistic DVESystem.client[16] 	clientMovesLost:stats
field count 0
field mean 0
field stddev -1.#IND
field sum 0
field sqrsum 0
field min 0
field max 0
attr interpolationmode  none
attr source  moveLost
attr title  "Moves lost, stats"
statistic DVESystem.client[16] 	dveResponse:stats
field count 85
field mean 0.48513238153354
field stddev 0.21134757454403
field sum 41.236252430351
field sqrsum 23.757136317369
field min 0.147268877997
field max 1.061554525565
attr interpolationmode  none
attr source  sysResponse
attr title  "DVE response time, stats"
statistic DVESystem.client[17] 	clientPresenceFactor:stats
field count 516
field mean 2.2325581395349
field stddev 1.4293002043948
field sum 1152
field sqrsum 3624
field min 0
field max 6
attr interpolationmode  none
attr source  presenceFactor
attr title  "Presence Factor, stats"
scalar DVESystem.client[17] 	"clientPresenceFactor: -count" 	-516
attr interpolationmode  none
attr source  presenceFactor
attr title  "Presence Factor,  -count"
statistic DVESystem.client[17] 	clientMoves:stats
field count 85
field mean 43
field stddev 24.681301964578
field sum 3655
field sqrsum 208335
field min 1
field max 85
attr interpolationmode  none
attr source  move
attr title  "Moves, stats"
statistic DVESystem.client[17] 	clientNoMoves:stats
field count 15
field mean 8
field stddev 4.4721359549996
field sum 120
field sqrsum 1240
field min 1
field max 15
attr interpolationmode  none
attr source  noMove
attr title  "No moves, stats"
statistic DVESystem.client[17] 	clientMovesLost:stats
field count 0
field mean 0
field stddev -1.#IND
field sum 0
field sqrsum 0
field min 0
field max 0
attr interpolationmode  none
attr source  moveLost
attr title  "Moves lost, stats"
statistic DVESystem.client[17] 	dveResponse:stats
field count 85
field mean 0.48835810910176
field stddev 0.20514071458791
field sum 41.51043927365
field sqrsum 23.806907505321
field min 0.069077492331
field max 1.26935588145
attr interpolationmode  none
attr source  sysResponse
attr title  "DVE response time, stats"
statistic DVESystem.client[18] 	clientPresenceFactor:stats
field count 570
field mean 2.4245614035088
field stddev 1.3105333305408
field sum 1382
field sqrsum 4328
field min 0
field max 7
attr interpolationmode  none
attr source  presenceFactor
attr title  "Presence Factor, stats"
scalar DVESystem.client[18] 	"clientPresenceFactor: -count" 	-570
attr interpolationmode  none
attr source  presenceFactor
attr title  "Presence Factor,  -count"
statistic DVESystem.client[18] 	clientMoves:stats
field count 86
field mean 43.5
field stddev 24.969981978368
field sum 3741
field sqrsum 215731
field min 1
field max 86
attr interpolationmode  none
attr source  move
attr title  "Moves, stats"
statistic DVESystem.client[18] 	clientNoMoves:stats
field count 14
field mean 7.5
field stddev 4.1833001326704
field sum 105
field sqrsum 1015
field min 1
field max 14
attr interpolationmode  none
attr source  noMove
attr title  "No moves, stats"
statistic DVESystem.client[18] 	clientMovesLost:stats
field count 0
field mean 0
field stddev -1.#IND
field sum 0
field sqrsum 0
field min 0
field max 0
attr interpolationmode  none
attr source  moveLost
attr title  "Moves lost, stats"
statistic DVESystem.client[18] 	dveResponse:stats
field count 86
field mean 0.51100971353895
field stddev 0.19557254348407
field sum 43.94683536435
field sqrsum 25.70839243049
field min 0.145247181023
field max 0.949735003598
attr interpolationmode  none
attr source  sysResponse
attr title  "DVE response time, stats"
statistic DVESystem.client[19] 	clientPresenceFactor:stats
field count 587
field mean 2.6456558773424
field stddev 1.4228129270585
field sum 1553
field sqrsum 5295
field min 0
field max 7
attr interpolationmode  none
attr source  presenceFactor
attr title  "Presence Factor, stats"
scalar DVESystem.client[19] 	"clientPresenceFactor: -count" 	-587
attr interpolationmode  none
attr source  presenceFactor
attr title  "Presence Factor,  -count"
statistic DVESystem.client[19] 	clientMoves:stats
field count 89
field mean 45
field stddev 25.836021365528
field sum 4005
field sqrsum 238965
field min 1
field max 89
attr interpolationmode  none
attr source  move
attr title  "Moves, stats"
statistic DVESystem.client[19] 	clientNoMoves:stats
field count 11
field mean 6
field stddev 3.3166247903554
field sum 66
field sqrsum 506
field min 1
field max 11
attr interpolationmode  none
attr source  noMove
attr title  "No moves, stats"
statistic DVESystem.client[19] 	clientMovesLost:stats
field count 0
field mean 0
field stddev -1.#IND
field sum 0
field sqrsum 0
field min 0
field max 0
attr interpolationmode  none
attr source  moveLost
attr title  "Moves lost, stats"
statistic DVESystem.client[19] 	dveResponse:stats
field count 89
field mean 0.54277582394012
field stddev 0.22219280340089
field sum 48.307048330671
field sqrsum 30.564426445512
field min 0.170044595455
field max 1.099211721345
attr interpolationmode  none
attr source  sysResponse
attr title  "DVE response time, stats"
statistic DVESystem.client[20] 	clientPresenceFactor:stats
field count 540
field mean 2.3537037037037
field stddev 1.4867644843408
field sum 1271
field sqrsum 4183
field min 0
field max 8
attr interpolationmode  none
attr source  presenceFactor
attr title  "Presence Factor, stats"
scalar DVESystem.client[20] 	"clientPresenceFactor: -count" 	-540
attr interpolationmode  none
attr source  presenceFactor
attr title  "Presence Factor,  -count"
statistic DVESystem.client[20] 	clientMoves:stats
field count 90
field mean 45.5
field stddev 26.124700955226
field sum 4095
field sqrsum 247065
field min 1
field max 90
attr interpolationmode  none
attr source  move
attr title  "Moves, stats"
statistic DVESystem.client[20] 	clientNoMoves:stats
field count 10
field mean 5.5
field stddev 3.0276503540975
field sum 55
field sqrsum 385
field min 1
field max 10
attr interpolationmode  none
attr source  noMove
attr title  "No moves, stats"
statistic DVESystem.client[20] 	clientMovesLost:stats
field count 0
field mean 0
field stddev -1.#IND
field sum 0
field sqrsum 0
field min 0
field max 0
attr interpolationmode  none
attr source  moveLost
attr title  "Moves lost, stats"
statistic DVESystem.client[20] 	dveResponse:stats
field count 90
field mean 0.53362220652064
field stddev 0.19985741102533
field sum 48.025998586858
field sqrsum 29.182664978292
field min 0.059268479589
field max 1.16788347284
attr interpolationmode  none
attr source  sysResponse
attr title  "DVE response time, stats"
statistic DVESystem.client[21] 	clientPresenceFactor:stats
field count 507
field mean 2.163708086785
field stddev 1.4096030254372
field sum 1097
field sqrsum 3379
field min 0
field max 7
attr interpolationmode  none
attr source  presenceFactor
attr title  "Presence Factor, stats"
scalar DVESystem.client[21] 	"clientPresenceFactor: -count" 	-507
attr interpolationmode  none
attr source  presenceFactor
attr title  "Presence Factor,  -count"
statistic DVESystem.client[21] 	clientMoves:stats
field count 83
field mean 42
field stddev 24.103941586388
field sum 3486
field sqrsum 194054
field min 1
field max 83
attr interpolationmode  none
attr source  move
attr title  "Moves, stats"
statistic DVESystem.client[21] 	clientNoMoves:stats
field count 17
field mean 9
field stddev 5.049752469181
field sum 153
field sqrsum 1785
field min 1
field max 17
attr interpolationmode  none
attr source  noMove
attr title  "No moves, stats"
statistic DVESystem.client[21] 	clientMovesLost:stats
field count 0
field mean 0
field stddev -1.#IND
field sum 0
field sqrsum 0
field min 0
field max 0
attr interpolationmode  none
attr source  moveLost
attr title  "Moves lost, stats"
statistic DVESystem.client[21] 	dveResponse:stats
field count 83
field mean 0.51664185553028
field stddev 0.21532703373784
field sum 42.881274009013
field sqrsum 25.956250951102
field min 0.121767227369
field max 1.145822172067
attr interpolationmode  none
attr source  sysResponse
attr title  "DVE response time, stats"
statistic DVESystem.client[22] 	clientPresenceFactor:stats
field count 602
field mean 2.453488372093
field stddev 1.5137735212293
field sum 1477
field sqrsum 5001
field min 0
field max 8
attr interpolationmode  none
attr source  presenceFactor
attr title  "Presence Factor, stats"
scalar DVESystem.client[22] 	"clientPresenceFactor: -count" 	-602
attr interpolationmode  none
attr source  presenceFactor
attr title  "Presence Factor,  -count"
statistic DVESystem.client[22] 	clientMoves:stats
field count 85
field mean 43
field stddev 24.681301964578
field sum 3655
field sqrsum 208335
field min 1
field max 85
attr interpolationmode  none
attr source  move
attr title  "Moves, stats"
statistic DVESystem.client[22] 	clientNoMoves:stats
field count 15
field mean 8
field stddev 4.4721359549996
field sum 120
field sqrsum 1240
field min 1
field max 15
attr interpolationmode  none
attr source  noMove
attr title  "No moves, stats"
statistic DVESystem.client[22] 	clientMovesLost:stats
field count 0
field mean 0
field stddev -1.#IND
field sum 0
field sqrsum 0
field min 0
field max 0
attr interpolationmode  none
attr source  moveLost
attr title  "Moves lost, stats"
statistic DVESystem.client[22] 	dveResponse:stats
field count 85
field mean 0.5452167690874
field stddev 0.23616826300658
field sum 46.343425372429
field sqrsum 29.952350319929
field min 0.084348812665
field max 1.116615518456
attr interpolationmode  none
attr source  sysResponse
attr title  "DVE response time, stats"
statistic DVESystem.client[23] 	clientPresenceFactor:stats
field count 556
field mean 2.2392086330935
field stddev 1.4613243726701
field sum 1245
field sqrsum 3973
field min 0
field max 7
attr interpolationmode  none
attr source  presenceFactor
attr title  "Presence Factor, stats"
scalar DVESystem.client[23] 	"clientPresenceFactor: -count" 	-556
attr interpolationmode  none
attr source  presenceFactor
attr title  "Presence Factor,  -count"
statistic DVESystem.client[23] 	clientMoves:stats
field count 83
field mean 42
field stddev 24.103941586388
field sum 3486
field sqrsum 194054
field min 1
field max 83
attr interpolationmode  none
attr source  move
attr title  "Moves, stats"
statistic DVESystem.client[23] 	clientNoMoves:stats
field count 17
field mean 9
field stddev 5.049752469181
field sum 153
field sqrsum 1785
field min 1
field max 17
attr interpolationmode  none
attr source  noMove
attr title  "No moves, stats"
statistic DVESystem.client[23] 	clientMovesLost:stats
field count 0
field mean 0
field stddev -1.#IND
field sum 0
field sqrsum 0
field min 0
field max 0
attr interpolationmode  none
attr source  moveLost
attr title  "Moves lost, stats"
statistic DVESystem.client[23] 	dveResponse:stats
field count 83
field mean 0.49551204435646
field stddev 0.22320358998257
field sum 41.127499681586
field sqrsum 24.464398538143
field min 0.068978183844
field max 1.033076794081
attr interpolationmode  none
attr source  sysResponse
attr title  "DVE response time, stats"
statistic DVESystem.client[24] 	clientPresenceFactor:stats
field count 550
field mean 2.3709090909091
field stddev 1.4811102918549
field sum 1304
field sqrsum 4296
field min 0
field max 7
attr interpolationmode  none
attr source  presenceFactor
attr title  "Presence Factor, stats"
scalar DVESystem.client[24] 	"clientPresenceFactor: -count" 	-550
attr interpolationmode  none
attr source  presenceFactor
attr title  "Presence Factor,  -count"
statistic DVESystem.client[24] 	clientMoves:stats
field count 83
field mean 42
field stddev 24.103941586388
field sum 3486
field sqrsum 194054
field min 1
field max 83
attr interpolationmode  none
attr source  move
attr title  "Moves, stats"
statistic DVESystem.client[24] 	clientNoMoves:stats
field count 17
field mean 9
field stddev 5.049752469181
field sum 153
field sqrsum 1785
field min 1
field max 17
attr interpolationmode  none
attr source  noMove
attr title  "No moves, stats"
statistic DVESystem.client[24] 	clientMovesLost:stats
field count 0
field mean 0
field stddev -1.#IND
field sum 0
field sqrsum 0
field min 0
field max 0
attr interpolationmode  none
attr source  moveLost
attr title  "Moves lost, stats"
statistic DVESystem.client[24] 	dveResponse:stats
field count 83
field mean 0.53010254575804
field stddev 0.19785893647133
field sum 43.998511297917
field sqrsum 26.533871865398
field min 0.25366234015
field max 1.249117903168
attr interpolationmode  none
attr source  sysResponse
attr title  "DVE response time, stats"
statistic DVESystem.client[25] 	clientPresenceFactor:stats
field count 511
field mean 2.3424657534247
field stddev 1.5662297011505
field sum 1197
field sqrsum 4055
field min 0
field max 8
attr interpolationmode  none
attr source  presenceFactor
attr title  "Presence Factor, stats"
scalar DVESystem.client[25] 	"clientPresenceFactor: -count" 	-511
attr interpolationmode  none
attr source  presenceFactor
attr title  "Presence Factor,  -count"
statistic DVESystem.client[25] 	clientMoves:stats
field count 79
field mean 40
field stddev 22.949219304078
field sum 3160
field sqrsum 167480
field min 1
field max 79
attr interpolationmode  none
attr source  move
attr title  "Moves, stats"
statistic DVESystem.client[25] 	clientNoMoves:stats
field count 21
field mean 11
field stddev 6.2048368229954
field sum 231
field sqrsum 3311
field min 1
field max 21
attr interpolationmode  none
attr source  noMove
attr title  "No moves, stats"
statistic DVESystem.client[25] 	clientMovesLost:stats
field count 0
field mean 0
field stddev -1.#IND
field sum 0
field sqrsum 0
field min 0
field max 0
attr interpolationmode  none
attr source  moveLost
attr title  "Moves lost, stats"
statistic DVESystem.client[25] 	dveResponse:stats
field count 79
field mean 0.5004873947517
field stddev 0.18447176634459
field sum 39.538504185384
field sqrsum 22.442849893229
field min 0.10920311534
field max 1.140904649078
attr interpolationmode  none
attr source  sysResponse
attr title  "DVE response time, stats"
statistic DVESystem.client[26] 	clientPresenceFactor:stats
field count 581
field mean 2.7624784853701
field stddev 1.4827874676114
field sum 1605
field sqrsum 5709
field min 0
field max 7
attr interpolationmode  none
attr source  presenceFactor
attr title  "Presence Factor, stats"
scalar DVESystem.client[26] 	"clientPresenceFactor: -count" 	-581
attr interpolationmode  none
attr source  presenceFactor
attr title  "Presence Factor,  -count"
statistic DVESystem.client[26] 	clientMoves:stats
field count 86
field mean 43.5
field stddev 24.969981978368
field sum 3741
field sqrsum 215731
field min 1
field max 86
attr interpolationmode  none
attr source  move
attr title  "Moves, stats"
statistic DVESystem.client[26] 	clientNoMoves:stats
field count 14
field mean 7.5
field stddev 4.1833001326704
field sum 105
field sqrsum 1015
field min 1
field max 14
attr interpolationmode  none
attr source  noMove
attr title  "No moves, stats"
statistic DVESystem.client[26] 	clientMovesLost:stats
field count 0
field mean 0
field stddev -1.#IND
field sum 0
field sqrsum 0
field min 0
field max 0
attr interpolationmode  none
attr source  moveLost
attr title  "Moves lost, stats"
statistic DVESystem.client[26] 	dveResponse:stats
field count 86
field mean 0.53581246577219
field stddev 0.22970437668406
field sum 46.079872056408
field sqrsum 29.175118425775
field min 0.063205530445
field max 1.240772907827
attr interpolationmode  none
attr source  sysResponse
attr title  "DVE response time, stats"
statistic DVESystem.client[27] 	clientPresenceFactor:stats
field count 543
field mean 2.4180478821363
field stddev 1.3759284894337
field sum 1313
field sqrsum 4201
field min 0
field max 7
attr interpolationmode  none
attr source  presenceFactor
attr title  "Presence Factor, stats"
scalar DVESystem.client[27] 	"clientPresenceFactor: -count" 	-543
attr interpolationmode  none
attr source  presenceFactor
attr title  "Presence Factor,  -count"
statistic DVESystem.client[27] 	clientMoves:stats
field count 84
field mean 42.5
field stddev 24.392621835301
field sum 3570
field sqrsum 201110
field min 1
field max 84
attr interpolationmode  none
attr source  move
attr title  "Moves, stats"
statistic DVESystem.client[27] 	clientNoMoves:stats
field count 16
field mean 8.5
field stddev 4.7609522856952
field sum 136
field sqrsum 1496
field min 1
field max 16
attr interpolationmode  none
attr source  noMove
attr title  "No moves, stats"
statistic DVESystem.client[27] 	clientMovesLost:stats
field count 0
field mean 0
field stddev -1.#IND
field sum 0
field sqrsum 0
field min 0
field max 0
attr interpolationmode  none
attr source  moveLost
attr title  "Moves lost, stats"
statistic DVESystem.client[27] 	dveResponse:stats
field count 84
field mean 0.48758918482287
field stddev 0.16090823702742
field sum 40.957491525121
field sqrsum 22.119421146815
field min 0.172097062785
field max 0.959651522063
attr interpolationmode  none
attr source  sysResponse
attr title  "DVE response time, stats"
statistic DVESystem.client[28] 	clientPresenceFactor:stats
field count 563
field mean 2.4742451154529
field stddev 1.7455467253604
field sum 1393
field sqrsum 5159
field min 0
field max 9
attr interpolationmode  none
attr source  presenceFactor
attr title  "Presence Factor, stats"
scalar DVESystem.client[28] 	"clientPresenceFactor: -count" 	-563
attr interpolationmode  none
attr source  presenceFactor
attr title  "Presence Factor,  -count"
statistic DVESystem.client[28] 	clientMoves:stats
field count 90
field mean 45.5
field stddev 26.124700955226
field sum 4095
field sqrsum 247065
field min 1
field max 90
attr interpolationmode  none
attr source  move
attr title  "Moves, stats"
statistic DVESystem.client[28] 	clientNoMoves:stats
field count 10
field mean 5.5
field stddev 3.0276503540975
field sum 55
field sqrsum 385
field min 1
field max 10
attr interpolationmode  none
attr source  noMove
attr title  "No moves, stats"
statistic DVESystem.client[28] 	clientMovesLost:stats
field count 0
field mean 0
field stddev -1.#IND
field sum 0
field sqrsum 0
field min 0
field max 0
attr interpolationmode  none
attr source  moveLost
attr title  "Moves lost, stats"
statistic DVESystem.client[28] 	dveResponse:stats
field count 90
field mean 0.49298367669269
field stddev 0.21571298111921
field sum 44.368530902342
field sqrsum 26.014317523567
field min 0.120625822739
field max 1.255037005825
attr interpolationmode  none
attr source  sysResponse
attr title  "DVE response time, stats"
statistic DVESystem.client[29] 	clientPresenceFactor:stats
field count 544
field mean 2.2389705882353
field stddev 1.4367793323827
field sum 1218
field sqrsum 3848
field min 0
field max 7
attr interpolationmode  none
attr source  presenceFactor
attr title  "Presence Factor, stats"
scalar DVESystem.client[29] 	"clientPresenceFactor: -count" 	-544
attr interpolationmode  none
attr source  presenceFactor
attr title  "Presence Factor,  -count"
statistic DVESystem.client[29] 	clientMoves:stats
field count 89
field mean 45
field stddev 25.836021365528
field sum 4005
field sqrsum 238965
field min 1
field max 89
attr interpolationmode  none
attr source  move
attr title  "Moves, stats"
statistic DVESystem.client[29] 	clientNoMoves:stats
field count 11
field mean 6
field stddev 3.3166247903554
field sum 66
field sqrsum 506
field min 1
field max 11
attr interpolationmode  none
attr source  noMove
attr title  "No moves, stats"
statistic DVESystem.client[29] 	clientMovesLost:stats
field count 0
field mean 0
field stddev -1.#IND
field sum 0
field sqrsum 0
field min 0
field max 0
attr interpolationmode  none
attr source  moveLost
attr title  "Moves lost, stats"
statistic DVESystem.client[29] 	dveResponse:stats
field count 89
field mean 0.50390047495429
field stddev 0.20858626102502
field sum 44.847142270932
field sqrsum 26.427220380044
field min 0.145264156346
field max 1.137738187607
attr interpolationmode  none
attr source  sysResponse
attr title  "DVE response time, stats"
statistic DVESystem.client[30] 	clientPresenceFactor:stats
field count 588
field mean 2.4778911564626
field stddev 1.3854393610789
field sum 1457
field sqrsum 4737
field min 0
field max 6
attr interpolationmode  none
attr source  presenceFactor
attr title  "Presence Factor, stats"
scalar DVESystem.client[30] 	"clientPresenceFactor: -count" 	-588
attr interpolationmode  none
attr source  presenceFactor
attr title  "Presence Factor,  -count"
statistic DVESystem.client[30] 	clientMoves:stats
field count 86
field mean 43.5
field stddev 24.969981978368
field sum 3741
field sqrsum 215731
field min 1
field max 86
attr interpolationmode  none
attr source  move
attr title  "Moves, stats"
statistic DVESystem.client[30] 	clientNoMoves:stats
field count 14
field mean 7.5
field stddev 4.1833001326704
field sum 105
field sqrsum 1015
field min 1
field max 14
attr interpolationmode  none
attr source  noMove
attr title  "No moves, stats"
statistic DVESystem.client[30] 	clientMovesLost:stats
field count 0
field mean 0
field stddev -1.#IND
field sum 0
field sqrsum 0
field min 0
field max 0
attr interpolationmode  none
attr source  moveLost
attr title  "Moves lost, stats"
statistic DVESystem.client[30] 	dveResponse:stats
field count 86
field mean 0.52520628917564
field stddev 0.21355719316645
field sum 45.167740869105
field sqrsum 27.598948926326
field min 0.085531378407
field max 1.217467294524
attr interpolationmode  none
attr source  sysResponse
attr title  "DVE response time, stats"
statistic DVESystem.client[31] 	clientPresenceFactor:stats
field count 545
field mean 2.6532110091743
field stddev 1.6345628579664
field sum 1446
field sqrsum 5290
field min 0
field max 8
attr interpolationmode  none
attr source  presenceFactor
attr title  "Presence Factor, stats"
scalar DVESystem.client[31] 	"clientPresenceFactor: -count" 	-545
attr interpolationmode  none
attr source  presenceFactor
attr title  "Presence Factor,  -count"
statistic DVESystem.client[31] 	clientMoves:stats
field count 79
field mean 40
field stddev 22.949219304078
field sum 3160
field sqrsum 167480
field min 1
field max 79
attr interpolationmode  none
attr source  move
attr title  "Moves, stats"
statistic DVESystem.client[31] 	clientNoMoves:stats
field count 21
field mean 11
field stddev 6.2048368229954
field sum 231
field sqrsum 3311
field min 1
field max 21
attr interpolationmode  none
attr source  noMove
attr title  "No moves, stats"
statistic DVESystem.client[31] 	clientMovesLost:stats
field count 0
field mean 0
field stddev -1.#IND
field sum 0
field sqrsum 0
field min 0
field max 0
attr interpolationmode  none
attr source  moveLost
attr title  "Moves lost, stats"
statistic DVESystem.client[31] 	dveResponse:stats
field count 79
field mean 0.49566650362553
field stddev 0.19822578266067
field sum 39.157653786417
field sqrsum 22.474027293584
field min 0.182858504049
field max 1.278931936102
attr interpolationmode  none
attr source  sysResponse
attr title  "DVE response time, stats"
statistic DVESystem.client[32] 	clientPresenceFactor:stats
field count 593
field mean 2.4030354131535
field stddev 1.4569698147091
field sum 1425
field sqrsum 4681
field min 0
field max 7
attr interpolationmode  none
attr source  presenceFactor
attr title  "Presence Factor, stats"
scalar DVESystem.client[32] 	"clientPresenceFactor: -count" 	-593
attr interpolationmode  none
attr source  presenceFactor
attr title  "Presence Factor,  -count"
statistic DVESystem.client[32] 	clientMoves:stats
field count 84
field mean 42.5
field stddev 24.392621835301
field sum 3570
field sqrsum 201110
field min 1
field max 84
attr interpolationmode  none
attr source  move
attr title  "Moves, stats"
statistic DVESystem.client[32] 	clientNoMoves:stats
field count 16
field mean 8.5
field stddev 4.7609522856952
field sum 136
field sqrsum 1496
field min 1
field max 16
attr interpolationmode  none
attr source  noMove
attr title  "No moves, stats"
statistic DVESystem.client[32] 	clientMovesLost:stats
field count 0
field mean 0
field stddev -1.#IND
field sum 0
field sqrsum 0
field min 0
field max 0
attr interpolationmode  none
attr source  moveLost
attr title  "Moves lost, stats"
statistic DVESystem.client[32] 	dveResponse:stats
field count 84
field mean 0.50098800628298
field stddev 0.22181361851919
field sum 42.08299252777
field sqrsum 25.166780877837
field min 0.127296306462
field max 1.242519965814
attr interpolationmode  none
attr source  sysResponse
attr title  "DVE response time, stats"
statistic DVESystem.client[33] 	clientPresenceFactor:stats
field count 540
field mean 2.3666666666667
field stddev 1.4307775173895
field sum 1278
field sqrsum 4128
field min 0
field max 6
attr interpolationmode  none
attr source  presenceFactor
attr title  "Presence Factor, stats"
scalar DVESystem.client[33] 	"clientPresenceFactor: -count" 	-540
attr interpolationmode  none
attr source  presenceFactor
attr title  "Presence Factor,  -count"
statistic DVESystem.client[33] 	clientMoves:stats
field count 86
field mean 43.5
field stddev 24.969981978368
field sum 3741
field sqrsum 215731
field min 1
field max 86
attr interpolationmode  none
attr source  move
attr title  "Moves, stats"
statistic DVESystem.client[33] 	clientNoMoves:stats
field count 14
field mean 7.5
field stddev 4.1833001326704
field sum 105
field sqrsum 1015
field min 1
field max 14
attr interpolationmode  none
attr source  noMove
attr title  "No moves, stats"
statistic DVESystem.client[33] 	clientMovesLost:stats
field count 0
field mean 0
field stddev -1.#IND
field sum 0
field sqrsum 0
field min 0
field max 0
attr interpolationmode  none
attr source  moveLost
attr title  "Moves lost, stats"
statistic DVESystem.client[33] 	dveResponse:stats
field count 86
field mean 0.48510280816688
field stddev 0.20169997968176
field sum 41.718841502352
field sqrsum 23.695972119568
field min 0.060240282754
field max 1.199175428322
attr interpolationmode  none
attr source  sysResponse
attr title  "DVE response time, stats"
statistic DVESystem.client[34] 	clientPresenceFactor:stats
field count 576
field mean 2.5104166666667
field stddev 1.6649520165432
field sum 1446
field sqrsum 5224
field min 0
field max 10
attr interpolationmode  none
attr source  presenceFactor
attr title  "Presence Factor, stats"
scalar DVESystem.client[34] 	"clientPresenceFactor: -count" 	-576
attr interpolationmode  none
attr source  presenceFactor
attr title  "Presence Factor,  -count"
statistic DVESystem.client[34] 	clientMoves:stats
field count 89
field mean 45
field stddev 25.836021365528
field sum 4005
field sqrsum 238965
field min 1
field max 89
attr interpolationmode  none
attr source  move
attr title  "Moves, stats"
statistic DVESystem.client[34] 	clientNoMoves:stats
field count 11
field mean 6
field stddev 3.3166247903554
field sum 66
field sqrsum 506
field min 1
field max 11
attr interpolationmode  none
attr source  noMove
attr title  "No moves, stats"
statistic DVESystem.client[34] 	clientMovesLost:stats
field count 0
field mean 0
field stddev -1.#IND
field sum 0
field sqrsum 0
field min 0
field max 0
attr interpolationmode  none
attr source  moveLost
attr title  "Moves lost, stats"
statistic DVESystem.client[34] 	dveResponse:stats
field count 89
field mean 0.50805432196912
field stddev 0.22335669319736
field sum 45.216834655252
field sqrsum 27.362770963217
field min 0.128985259381
field max 1.266997236852
attr interpolationmode  none
attr source  sysResponse
attr title  "DVE response time, stats"
statistic DVESystem.client[35] 	clientPresenceFactor:stats
field count 601
field mean 2.5940099833611
field stddev 1.5027410710321
field sum 1559
field sqrsum 5399
field min 0
field max 7
attr interpolationmode  none
attr source  presenceFactor
attr title  "Presence Factor, stats"
scalar DVESystem.client[35] 	"clientPresenceFactor: -count" 	-601
attr interpolationmode  none
attr source  presenceFactor
attr title  "Presence Factor,  -count"
statistic DVESystem.client[35] 	clientMoves:stats
field count 84
field mean 42.5
field stddev 24.392621835301
field sum 3570
field sqrsum 201110
field min 1
field max 84
attr interpolationmode  none
attr source  move
attr title  "Moves, stats"
statistic DVESystem.client[35] 	clientNoMoves:stats
field count 16
field mean 8.5
field stddev 4.7609522856952
field sum 136
field sqrsum 1496
field min 1
field max 16
attr interpolationmode  none
attr source  noMove
attr title  "No moves, stats"
statistic DVESystem.client[35] 	clientMovesLost:stats
field count 0
field mean 0
field stddev -1.#IND
field sum 0
field sqrsum 0
field min 0
field max 0
attr interpolationmode  none
attr source  moveLost
attr title  "Moves lost, stats"
statistic DVESystem.client[35] 	dveResponse:stats
field count 84
field mean 0.53639808390113
field stddev 0.1922904550399
field sum 45.057439047695
field sqrsum 27.23770035593
field min 0.16919783379
field max 0.971391290708
attr interpolationmode  none
attr source  sysResponse
attr title  "DVE response time, stats"
statistic DVESystem.client[36] 	clientPresenceFactor:stats
field count 591
field mean 2.3874788494078
field stddev 1.4498786293363
field sum 1411
field sqrsum 4609
field min 0
field max 7
attr interpolationmode  none
attr source  presenceFactor
attr title  "Presence Factor, stats"
scalar DVESystem.client[36] 	"clientPresenceFactor: -count" 	-591
attr interpolationmode  none
attr source  presenceFactor
attr title  "Presence Factor,  -count"
statistic DVESystem.client[36] 	clientMoves:stats
field count 91
field mean 46
field stddev 26.413380447543
field sum 4186
field sqrsum 255346
field min 1
field max 91
attr interpolationmode  none
attr source  move
attr title  "Moves, stats"
statistic DVESystem.client[36] 	clientNoMoves:stats
field count 9
field mean 5
field stddev 2.7386127875258
field sum 45
field sqrsum 285
field min 1
field max 9
attr interpolationmode  none
attr source  noMove
attr title  "No moves, stats"
statistic DVESystem.client[36] 	clientMovesLost:stats
field count 0
field mean 0
field stddev -1.#IND
field sum 0
field sqrsum 0
field min 0
field max 0
attr interpolationmode  none
attr source  moveLost
attr title  "Moves lost, stats"
statistic DVESystem.client[36] 	dveResponse:stats
field count 91
field mean 0.49015630293004
field stddev 0.22198115917496
field sum 44.604223566634
field sqrsum 26.297848471066
field min 0.090666659276
field max 1.063066875318
attr interpolationmode  none
attr source  sysResponse
attr title  "DVE response time, stats"
statistic DVESystem.client[37] 	clientPresenceFactor:stats
field count 565
field mean 2.5592920353982
field stddev 1.5852062738084
field sum 1446
field sqrsum 5118
field min 0
field max 7
attr interpolationmode  none
attr source  presenceFactor
attr title  "Presence Factor, stats"
scalar DVESystem.client[37] 	"clientPresenceFactor: -count" 	-565
attr interpolationmode  none
attr source  presenceFactor
attr title  "Presence Factor,  -count"
statistic DVESystem.client[37] 	clientMoves:stats
field count 82
field mean 41.5
field stddev 23.815261213488
field sum 3403
field sqrsum 187165
field min 1
field max 82
attr interpolationmode  none
attr source  move
attr title  "Moves, stats"
statistic DVESystem.client[37] 	clientNoMoves:stats
field count 18
field mean 9.5
field stddev 5.3385391260157
field sum 171
field sqrsum 2109
field min 1
field max 18
attr interpolationmode  none
attr source  noMove
attr title  "No moves, stats"
statistic DVESystem.client[37] 	clientMovesLost:stats
field count 0
field mean 0
field stddev -1.#IND
field sum 0
field sqrsum 0
field min 0
field max 0
attr interpolationmode  none
attr source  moveLost
attr title  "Moves lost, stats"
statistic DVESystem.client[37] 	dveResponse:stats
field count 82
field mean 0.5361734980148
field stddev 0.24118855088121
field sum 43.966226837214
field sqrsum 28.285450920992
field min 0.030421177194
field max 1.173866718368
attr interpolationmode  none
attr source  sysResponse
attr title  "DVE response time, stats"
statistic DVESystem.client[38] 	clientPresenceFactor:stats
field count 517
field mean 2.2301740812379
field stddev 1.5209195532527
field sum 1153
field sqrsum 3765
field min 0
field max 8
attr interpolationmode  none
attr source  presenceFactor
attr title  "Presence Factor, stats"
scalar DVESystem.client[38] 	"clientPresenceFactor: -count" 	-517
attr interpolationmode  none
attr source  presenceFactor
attr title  "Presence Factor,  -count"
statistic DVESystem.client[38] 	clientMoves:stats
field count 88
field mean 44.5
field stddev 25.547341675146
field sum 3916
field sqrsum 231044
field min 1
field max 88
attr interpolationmode  none
attr source  move
attr title  "Moves, stats"
statistic DVESystem.client[38] 	clientNoMoves:stats
field count 12
field mean 6.5
field stddev 3.605551275464
field sum 78
field sqrsum 650
field min 1
field max 12
attr interpolationmode  none
attr source  noMove
attr title  "No moves, stats"
[...]
field count 0
field mean 0
field stddev -1.#IND
field sum 0
field sqrsum 0
field min 0
field max 0
attr interpolationmode  none
attr source  moveLost
attr title  "Moves lost, stats"
statistic DVESystem.client[166] 	dveResponse:stats
field count 85
field mean 0.44445807193736
field stddev 0.21000301551935
field sum 37.778936114676
field sqrsum 20.49565949366
field min 0.062249491338
field max 1.139838255263
attr interpolationmode  none
attr source  sysResponse
attr title  "DVE response time, stats"
statistic DVESystem.client[167] 	clientPresenceFactor:stats
field count 699
field mean 4.1087267525036
field stddev 4.3172434905227
field sum 2872
field sqrsum 24810
field min 0
field max 30
attr interpolationmode  none
attr source  presenceFactor
attr title  "Presence Factor, stats"
scalar DVESystem.client[167] 	"clientPresenceFactor: -count" 	-699
attr interpolationmode  none
attr source  presenceFactor
attr title  "Presence Factor,  -count"
statistic DVESystem.client[167] 	clientMoves:stats
field count 89
field mean 45
field stddev 25.836021365528
field sum 4005
field sqrsum 238965
field min 1
field max 89
attr interpolationmode  none
attr source  move
attr title  "Moves, stats"
statistic DVESystem.client[167] 	clientNoMoves:stats
field count 11
field mean 6
field stddev 3.3166247903554
field sum 66
field sqrsum 506
field min 1
field max 11
attr interpolationmode  none
attr source  noMove
attr title  "No moves, stats"
statistic DVESystem.client[167] 	clientMovesLost:stats
field count 0
field mean 0
field stddev -1.#IND
field sum 0
field sqrsum 0
field min 0
field max 0
attr interpolationmode  none
attr source  moveLost
attr title  "Moves lost, stats"
statistic DVESystem.client[167] 	dveResponse:stats
field count 89
field mean 0.48237015508928
field stddev 0.18304190603831
field sum 42.930943802946
field sqrsum 23.656987884576
field min 0.163199167493
field max 0.972039426059
attr interpolationmode  none
attr source  sysResponse
attr title  "DVE response time, stats"
statistic DVESystem.client[168] 	clientPresenceFactor:stats
field count 756
field mean 4.7896825396825
field stddev 3.3812023261864
field sum 3621
field sqrsum 25975
field min 0
field max 18
attr interpolationmode  none
attr source  presenceFactor
attr title  "Presence Factor, stats"
scalar DVESystem.client[168] 	"clientPresenceFactor: -count" 	-756
attr interpolationmode  none
attr source  presenceFactor
attr title  "Presence Factor,  -count"
statistic DVESystem.client[168] 	clientMoves:stats
field count 84
field mean 42.5
field stddev 24.392621835301
field sum 3570
field sqrsum 201110
field min 1
field max 84
attr interpolationmode  none
attr source  move
attr title  "Moves, stats"
statistic DVESystem.client[168] 	clientNoMoves:stats
field count 16
field mean 8.5
field stddev 4.7609522856952
field sum 136
field sqrsum 1496
field min 1
field max 16
attr interpolationmode  none
attr source  noMove
attr title  "No moves, stats"
statistic DVESystem.client[168] 	clientMovesLost:stats
field count 0
field mean 0
field stddev -1.#IND
field sum 0
field sqrsum 0
field min 0
field max 0
attr interpolationmode  none
attr source  moveLost
attr title  "Moves lost, stats"
statistic DVESystem.client[168] 	dveResponse:stats
field count 84
field mean 0.47422703914145
field stddev 0.21889588128729
field sum 39.835071287882
field sqrsum 22.867846678938
field min 0.156134381187
field max 1.36637987787
attr interpolationmode  none
attr source  sysResponse
attr title  "DVE response time, stats"
statistic DVESystem.client[169] 	clientPresenceFactor:stats
field count 711
field mean 4.0731364275668
field stddev 3.2227616767337
field sum 2896
field sqrsum 19170
field min 0
field max 19
attr interpolationmode  none
attr source  presenceFactor
attr title  "Presence Factor, stats"
scalar DVESystem.client[169] 	"clientPresenceFactor: -count" 	-711
attr interpolationmode  none
attr source  presenceFactor
attr title  "Presence Factor,  -count"
statistic DVESystem.client[169] 	clientMoves:stats
field count 90
field mean 45.5
field stddev 26.124700955226
field sum 4095
field sqrsum 247065
field min 1
field max 90
attr interpolationmode  none
attr source  move
attr title  "Moves, stats"
statistic DVESystem.client[169] 	clientNoMoves:stats
field count 10
field mean 5.5
field stddev 3.0276503540975
field sum 55
field sqrsum 385
field min 1
field max 10
attr interpolationmode  none
attr source  noMove
attr title  "No moves, stats"
statistic DVESystem.client[169] 	clientMovesLost:stats
field count 0
field mean 0
field stddev -1.#IND
field sum 0
field sqrsum 0
field min 0
field max 0
attr interpolationmode  none
attr source  moveLost
attr title  "Moves lost, stats"
statistic DVESystem.client[169] 	dveResponse:stats
field count 90
field mean 0.51542567330378
field stddev 0.25655662646765
field sum 46.38831059734
field sqrsum 29.767822153076
field min 0.112625165415
field max 1.394789309999
attr interpolationmode  none
attr source  sysResponse
attr title  "DVE response time, stats"
statistic DVESystem.client[170] 	clientPresenceFactor:stats
field count 786
field mean 4.6526717557252
field stddev 3.9117949012497
field sum 3657
field sqrsum 29027
field min 0
field max 21
attr interpolationmode  none
attr source  presenceFactor
attr title  "Presence Factor, stats"
scalar DVESystem.client[170] 	"clientPresenceFactor: -count" 	-786
attr interpolationmode  none
attr source  presenceFactor
attr title  "Presence Factor,  -count"
statistic DVESystem.client[170] 	clientMoves:stats
field count 90
field mean 45.5
field stddev 26.124700955226
field sum 4095
field sqrsum 247065
field min 1
field max 90
attr interpolationmode  none
attr source  move
attr title  "Moves, stats"
statistic DVESystem.client[170] 	clientNoMoves:stats
field count 10
field mean 5.5
field stddev 3.0276503540975
field sum 55
field sqrsum 385
field min 1
field max 10
attr interpolationmode  none
attr source  noMove
attr title  "No moves, stats"
statistic DVESystem.client[170] 	clientMovesLost:stats
field count 0
field mean 0
field stddev -1.#IND
field sum 0
field sqrsum 0
field min 0
field max 0
attr interpolationmode  none
attr source  moveLost
attr title  "Moves lost, stats"
statistic DVESystem.client[170] 	dveResponse:stats
field count 90
field mean 0.46547113047586
field stddev 0.19674026658217
field sum 41.892401742827
field sqrsum 22.944602789622
field min 0.152684677852
field max 1.049523705437
attr interpolationmode  none
attr source  sysResponse
attr title  "DVE response time, stats"
statistic DVESystem.client[171] 	clientPresenceFactor:stats
field count 719
field mean 4.442280945758
field stddev 3.3854832358027
field sum 3194
field sqrsum 22418
field min 0
field max 21
attr interpolationmode  none
attr source  presenceFactor
attr title  "Presence Factor, stats"
scalar DVESystem.client[171] 	"clientPresenceFactor: -count" 	-719
attr interpolationmode  none
attr source  presenceFactor
attr title  "Presence Factor,  -count"
statistic DVESystem.client[171] 	clientMoves:stats
field count 86
field mean 43.5
field stddev 24.969981978368
field sum 3741
field sqrsum 215731
field min 1
field max 86
attr interpolationmode  none
attr source  move
attr title  "Moves, stats"
statistic DVESystem.client[171] 	clientNoMoves:stats
field count 14
field mean 7.5
field stddev 4.1833001326704
field sum 105
field sqrsum 1015
field min 1
field max 14
attr interpolationmode  none
attr source  noMove
attr title  "No moves, stats"
statistic DVESystem.client[171] 	clientMovesLost:stats
field count 0
field mean 0
field stddev -1.#IND
field sum 0
field sqrsum 0
field min 0
field max 0
attr interpolationmode  none
attr source  moveLost
attr title  "Moves lost, stats"
statistic DVESystem.client[171] 	dveResponse:stats
field count 86
field mean 0.45098902761437
field stddev 0.19786234337309
field sum 38.785056374836
field sqrsum 20.819342949089
field min 0.140208071269
field max 1.25407226034
attr interpolationmode  none
attr source  sysResponse
attr title  "DVE response time, stats"
statistic DVESystem.client[172] 	clientPresenceFactor:stats
field count 577
field mean 3.0433275563258
field stddev 2.4978868885811
field sum 1756
field sqrsum 8938
field min 0
field max 13
attr interpolationmode  none
attr source  presenceFactor
attr title  "Presence Factor, stats"
scalar DVESystem.client[172] 	"clientPresenceFactor: -count" 	-577
attr interpolationmode  none
attr source  presenceFactor
attr title  "Presence Factor,  -count"
statistic DVESystem.client[172] 	clientMoves:stats
field count 85
field mean 43
field stddev 24.681301964578
field sum 3655
field sqrsum 208335
field min 1
field max 85
attr interpolationmode  none
attr source  move
attr title  "Moves, stats"
statistic DVESystem.client[172] 	clientNoMoves:stats
field count 15
field mean 8
field stddev 4.4721359549996
field sum 120
field sqrsum 1240
field min 1
field max 15
attr interpolationmode  none
attr source  noMove
attr title  "No moves, stats"
statistic DVESystem.client[172] 	clientMovesLost:stats
field count 0
field mean 0
field stddev -1.#IND
field sum 0
field sqrsum 0
field min 0
field max 0
attr interpolationmode  none
attr source  moveLost
attr title  "Moves lost, stats"
statistic DVESystem.client[172] 	dveResponse:stats
field count 85
field mean 0.4267860601632
field stddev 0.18597349849738
field sum 36.276815113872
field sqrsum 18.38767493776
field min 0.083558328005
field max 0.984349489797
attr interpolationmode  none
attr source  sysResponse
attr title  "DVE response time, stats"
statistic DVESystem.client[173] 	clientPresenceFactor:stats
field count 752
field mean 4.4773936170213
field stddev 3.5908627368724
field sum 3367
field sqrsum 24759
field min 0
field max 17
attr interpolationmode  none
attr source  presenceFactor
attr title  "Presence Factor, stats"
scalar DVESystem.client[173] 	"clientPresenceFactor: -count" 	-752
attr interpolationmode  none
attr source  presenceFactor
attr title  "Presence Factor,  -count"
statistic DVESystem.client[173] 	clientMoves:stats
field count 90
field mean 45.5
field stddev 26.124700955226
field sum 4095
field sqrsum 247065
field min 1
field max 90
attr interpolationmode  none
attr source  move
attr title  "Moves, stats"
statistic DVESystem.client[173] 	clientNoMoves:stats
field count 10
field mean 5.5
field stddev 3.0276503540975
field sum 55
field sqrsum 385
field min 1
field max 10
attr interpolationmode  none
attr source  noMove
attr title  "No moves, stats"
statistic DVESystem.client[173] 	clientMovesLost:stats
field count 0
field mean 0
field stddev -1.#IND
field sum 0
field sqrsum 0
field min 0
field max 0
attr interpolationmode  none
attr source  moveLost
attr title  "Moves lost, stats"
statistic DVESystem.client[173] 	dveResponse:stats
field count 90
field mean 0.46627497491039
field stddev 0.19494838238241
field sum 41.964747741935
field sqrsum 22.949545290115
field min 0.089941349183
field max 0.899011885984
attr interpolationmode  none
attr source  sysResponse
attr title  "DVE response time, stats"
statistic DVESystem.client[174] 	clientPresenceFactor:stats
field count 677
field mean 4.0369276218612
field stddev 3.792330474548
field sum 2733
field sqrsum 20755
field min 0
field max 22
attr interpolationmode  none
attr source  presenceFactor
attr title  "Presence Factor, stats"
scalar DVESystem.client[174] 	"clientPresenceFactor: -count" 	-677
attr interpolationmode  none
attr source  presenceFactor
attr title  "Presence Factor,  -count"
statistic DVESystem.client[174] 	clientMoves:stats
field count 85
field mean 43
field stddev 24.681301964578
field sum 3655
field sqrsum 208335
field min 1
field max 85
attr interpolationmode  none
attr source  move
attr title  "Moves, stats"
statistic DVESystem.client[174] 	clientNoMoves:stats
field count 15
field mean 8
field stddev 4.4721359549996
field sum 120
field sqrsum 1240
field min 1
field max 15
attr interpolationmode  none
attr source  noMove
attr title  "No moves, stats"
statistic DVESystem.client[174] 	clientMovesLost:stats
field count 0
field mean 0
field stddev -1.#IND
field sum 0
field sqrsum 0
field min 0
field max 0
attr interpolationmode  none
attr source  moveLost
attr title  "Moves lost, stats"
statistic DVESystem.client[174] 	dveResponse:stats
field count 85
field mean 0.48518296999209
field stddev 0.21790757509164
field sum 41.240552449328
field sqrsum 23.997845469195
field min 0.149334306844
field max 1.211105890367
attr interpolationmode  none
attr source  sysResponse
attr title  "DVE response time, stats"
statistic DVESystem.client[175] 	clientPresenceFactor:stats
field count 805
field mean 4.3888198757764
field stddev 3.9602030481642
field sum 3533
field sqrsum 28115
field min 0
field max 21
attr interpolationmode  none
attr source  presenceFactor
attr title  "Presence Factor, stats"
scalar DVESystem.client[175] 	"clientPresenceFactor: -count" 	-805
attr interpolationmode  none
attr source  presenceFactor
attr title  "Presence Factor,  -count"
statistic DVESystem.client[175] 	clientMoves:stats
field count 92
field mean 46.5
field stddev 26.702059845637
field sum 4278
field sqrsum 263810
field min 1
field max 92
attr interpolationmode  none
attr source  move
attr title  "Moves, stats"
statistic DVESystem.client[175] 	clientNoMoves:stats
field count 8
field mean 4.5
field stddev 2.4494897427832
field sum 36
field sqrsum 204
field min 1
field max 8
attr interpolationmode  none
attr source  noMove
attr title  "No moves, stats"
statistic DVESystem.client[175] 	clientMovesLost:stats
field count 0
field mean 0
field stddev -1.#IND
field sum 0
field sqrsum 0
field min 0
field max 0
attr interpolationmode  none
attr source  moveLost
attr title  "Moves lost, stats"
statistic DVESystem.client[175] 	dveResponse:stats
field count 92
field mean 0.4875125890118
field stddev 0.2227167787732
field sum 44.851158189086
field sqrsum 26.379355731726
field min 0.132355159212
field max 1.643382817922
attr interpolationmode  none
attr source  sysResponse
attr title  "DVE response time, stats"
statistic DVESystem.client[176] 	clientPresenceFactor:stats
field count 619
field mean 3.8481421647819
field stddev 3.1565736010507
field sum 2382
field sqrsum 15324
field min 0
field max 19
attr interpolationmode  none
attr source  presenceFactor
attr title  "Presence Factor, stats"
scalar DVESystem.client[176] 	"clientPresenceFactor: -count" 	-619
attr interpolationmode  none
attr source  presenceFactor
attr title  "Presence Factor,  -count"
statistic DVESystem.client[176] 	clientMoves:stats
field count 79
field mean 40
field stddev 22.949219304078
field sum 3160
field sqrsum 167480
field min 1
field max 79
attr interpolationmode  none
attr source  move
attr title  "Moves, stats"
statistic DVESystem.client[176] 	clientNoMoves:stats
field count 21
field mean 11
field stddev 6.2048368229954
field sum 231
field sqrsum 3311
field min 1
field max 21
attr interpolationmode  none
attr source  noMove
attr title  "No moves, stats"
statistic DVESystem.client[176] 	clientMovesLost:stats
field count 0
field mean 0
field stddev -1.#IND
field sum 0
field sqrsum 0
field min 0
field max 0
attr interpolationmode  none
attr source  moveLost
attr title  "Moves lost, stats"
statistic DVESystem.client[176] 	dveResponse:stats
field count 79
field mean 0.44656232485633
field stddev 0.19913704250673
field sum 35.27842366365
field sqrsum 18.847148700976
field min 0.091447769826
field max 1.186259599981
attr interpolationmode  none
attr source  sysResponse
attr title  "DVE response time, stats"
statistic DVESystem.client[177] 	clientPresenceFactor:stats
field count 681
field mean 4.7400881057269
field stddev 3.9342006428382
field sum 3228
field sqrsum 25826
field min 0
field max 20
attr interpolationmode  none
attr source  presenceFactor
attr title  "Presence Factor, stats"
scalar DVESystem.client[177] 	"clientPresenceFactor: -count" 	-681
attr interpolationmode  none
attr source  presenceFactor
attr title  "Presence Factor,  -count"
statistic DVESystem.client[177] 	clientMoves:stats
field count 81
field mean 41
field stddev 23.526580712037
field sum 3321
field sqrsum 180441
field min 1
field max 81
attr interpolationmode  none
attr source  move
attr title  "Moves, stats"
statistic DVESystem.client[177] 	clientNoMoves:stats
field count 19
field mean 10
field stddev 5.6273143387114
field sum 190
field sqrsum 2470
field min 1
field max 19
attr interpolationmode  none
attr source  noMove
attr title  "No moves, stats"
statistic DVESystem.client[177] 	clientMovesLost:stats
field count 0
field mean 0
field stddev -1.#IND
field sum 0
field sqrsum 0
field min 0
field max 0
attr interpolationmode  none
attr source  moveLost
attr title  "Moves lost, stats"
statistic DVESystem.client[177] 	dveResponse:stats
field count 81
field mean 0.48665117989349
field stddev 0.22371907474871
field sum 39.418745571373
field sqrsum 23.187196994744
field min 0.076857357264
field max 1.252472703083
attr interpolationmode  none
attr source  sysResponse
attr title  "DVE response time, stats"
statistic DVESystem.client[178] 	clientPresenceFactor:stats
field count 711
field mean 4.7946554149086
field stddev 4.1070224453988
field sum 3409
field sqrsum 28321
field min 0
field max 20
attr interpolationmode  none
attr source  presenceFactor
attr title  "Presence Factor, stats"
scalar DVESystem.client[178] 	"clientPresenceFactor: -count" 	-711
attr interpolationmode  none
attr source  presenceFactor
attr title  "Presence Factor,  -count"
statistic DVESystem.client[178] 	clientMoves:stats
field count 87
field mean 44
field stddev 25.25866188063
field sum 3828
field sqrsum 223300
field min 1
field max 87
attr interpolationmode  none
attr source  move
attr title  "Moves, stats"
statistic DVESystem.client[178] 	clientNoMoves:stats
field count 13
field mean 7
field stddev 3.8944404818493
field sum 91
field sqrsum 819
field min 1
field max 13
attr interpolationmode  none
attr source  noMove
attr title  "No moves, stats"
statistic DVESystem.client[178] 	clientMovesLost:stats
field count 0
field mean 0
field stddev -1.#IND
field sum 0
field sqrsum 0
field min 0
field max 0
attr interpolationmode  none
attr source  moveLost
attr title  "Moves lost, stats"
statistic DVESystem.client[178] 	dveResponse:stats
field count 87
field mean 0.46615464836035
field stddev 0.21382395574778
field sum 40.55545440735
field sqrsum 22.837092416792
field min 0.112827265816
field max 1.406572963659
attr interpolationmode  none
attr source  sysResponse
attr title  "DVE response time, stats"
statistic DVESystem.client[179] 	clientPresenceFactor:stats
field count 717
field mean 4.6429567642957
field stddev 3.6118591391229
field sum 3329
field sqrsum 24797
field min 0
field max 21
attr interpolationmode  none
attr source  presenceFactor
attr title  "Presence Factor, stats"
scalar DVESystem.client[179] 	"clientPresenceFactor: -count" 	-717
attr interpolationmode  none
attr source  presenceFactor
attr title  "Presence Factor,  -count"
statistic DVESystem.client[179] 	clientMoves:stats
field count 84
field mean 42.5
field stddev 24.392621835301
field sum 3570
field sqrsum 201110
field min 1
field max 84
attr interpolationmode  none
attr source  move
attr title  "Moves, stats"
statistic DVESystem.client[179] 	clientNoMoves:stats
field count 16
field mean 8.5
field stddev 4.7609522856952
field sum 136
field sqrsum 1496
field min 1
field max 16
attr interpolationmode  none
attr source  noMove
attr title  "No moves, stats"
statistic DVESystem.client[179] 	clientMovesLost:stats
field count 0
field mean 0
field stddev -1.#IND
field sum 0
field sqrsum 0
field min 0
field max 0
attr interpolationmode  none
attr source  moveLost
attr title  "Moves lost, stats"
statistic DVESystem.client[179] 	dveResponse:stats
field count 84
field mean 0.45039760353619
field stddev 0.22824750628187
field sum 37.83339869704
field sqrsum 21.364116809059
field min 0.047222971331
field max 1.37041284953
attr interpolationmode  none
attr source  sysResponse
attr title  "DVE response time, stats"
